
 + + + + + + + + + + + + + + + + + + + + + + + + + + + + + + + + + + + + + + + +
 + + + + + + + + + + + + + + + + + + + + + + + + + + + + + + + + + + + + + + + +
 + +                                                                         + +
 + +                      ASPEN PLUS CALCULATION HISTORY                     + +
 + +                                                                         + +
 + + + + + + + + + + + + + + + + + + + + + + + + + + + + + + + + + + + + + + + +
 + + + + + + + + + + + + + + + + + + + + + + + + + + + + + + + + + + + + + + + +

 ASPEN PLUS IS A TRADEMARK OF           HOTLINE:
 ASPEN TECHNOLOGY, INC.                 U.S.A. 888/996-7100
 781/221-6400                           EUROPE (44) 1189-226555

 PLATFORM: WIN-X64                                       MAY 16, 2025        
 VERSION: 40.0   Build 359                               FRIDAY      
 INSTALLATION:                                           7:18:46 P.M.        

 THIS COPY OF ASPEN PLUS LICENSED TO                                 


      ASPEN PLUS (R) IS A PROPRIETARY PRODUCT OF ASPEN TECHNOLOGY, INC.
      (ASPENTECH), AND MAY BE USED ONLY UNDER AGREEMENT WITH ASPENTECH.
      RESTRICTED RIGHTS LEGEND:  USE, REPRODUCTION, OR DISCLOSURE BY THE
      U.S. GOVERNMENT IS SUBJECT TO RESTRICTIONS SET FORTH IN 
      (i) FAR 52.227-14, Alt. III, (ii) FAR 52.227-19, (iii) DFARS 
      252.227-7013(c)(1)(ii), or (iv) THE ACCOMPANYING LICENSE AGREEMENT,
      AS APPLICABLE. FOR PURPOSES OF THE FAR, THIS SOFTWARE SHALL BE DEEMED
      TO BE "UNPUBLISHED" AND LICENSED WITH DISCLOSURE PROHIBITIONS.
      CONTRACTOR/SUBCONTRACTOR: ASPEN TECHNOLOGY, INC. 20 CROSBY DRIVE,
      BEDFORD, MA 01730.
 *** INPUT SUMMARY ***

 >>CURRENT RUN

   ORIGINAL RUN                           MAY 16, 2025        
   7:18:46 P.M.                           FRIDAY      
   INPUT FILE: _1841vuk.inm
   RUN ID : _1841vuk
          1    ;
          2    ;Input file created by Aspen Plus Rel. 40.0 at 19:18:46 Fri May 16, 2025
          3    ;Directory C:\Users\Ilya\Desktop\AES\code\ldpe_nn\model  Runid LDPE
          4    ;
          5
          6
          7    DYNAMICS
          8        DYNAMICS RESULTS=ON
          9
         10    TITLE  &
         11            'High-Pressure LDPE tubular reactor flowsheet with four sections'
         12
         13    IN-UNITS SI MASS-FLOW='kg/hr' MOLE-FLOW='kmol/hr' PRESSURE=bar  &
         14            TEMPERATURE=C PDROP='N/sqm'
         15
         16    DEF-STREAMS CONVEN ALL
         17
         18    MODEL-OPTION
         19
         20    SYS-OPTIONS TRACE=YES
         21
         22    RUN-CONTROL MAX-TIME=5000.0
         23
         24    DESCRIPTION "
         25        This flowsheet models a high-pressure LDPE tubular
         26        reactor flowsheet with four sections, two initiator
         27        and monomer injection points, and high and low
         28        pressure separators.
         29
         30        This application requires a FORTRAN subroutine
         31        to calculate the heat transfer coefficient
         32        along the reactor length. Please copy USRHPE.F
         33        located in the application directory to your
         34        working directory and compile it by typing.
         35
         36            ASPCOMP USRHPE
         37
         38        This subroutine locates the monomer and polymer
         39        components by looking for the names E2 and LDPE
         40        respectively. If you change component names you
         41        must update the subroutine.
         42
         43        If you don't have compiler you can copy USERFORT.DLL
         44        and USERFORT.DLOPT from APPlication folder to the working
         45        directory, enter USERPORT.DLOPT in the Run/Settings
         46        /Engine Files/Linker Options box and run simulation.
         47
         48
         49        "
         50
         51    DATABANKS 'APV140 POLYMER' / 'APV140 SEGMENT' /  &
         52            'APV140 INITIATO' / 'APV140 PURE40' / NOASPENPCD
         53
         54    PROP-SOURCES 'APV140 POLYMER' / 'APV140 SEGMENT' /  &
         55            'APV140 INITIATO' / 'APV140 PURE40'
         56
         57    COMPONENTS
         58        INI1 C14H10O4 /
         59        E2 C2H4 /
         60        LDPE PE /
         61        E2-SEG C2H4-R /
         62        INI2 C8H18O2 /
         63        WATER H2O
         64
         65    SOLVE
         66        RUN-MODE MODE=SIM
         67
         68    FLOWSHEET
         69        BLOCK PFR1 IN=FEED1 CIN1 OUT=OUT1 COUT1
         70        BLOCK PFR2 IN=OUT1 CIN2 OUT=OUT2 COUT2
         71        BLOCK FDMIX2 IN=OUT2 INIFD2 E2FD2B OUT=FEED2
         72        BLOCK PFR3 IN=FEED2 CIN3 OUT=OUT3 COUT3
         73        BLOCK PFR4 IN=OUT3 CIN4 OUT=OUT4 COUT4
         74        BLOCK HPS IN=OUT4 OUT=HP-RECY HPSB
         75        BLOCK LPS IN=HPSB OUT=LP-RECY LPSB
         76        BLOCK FDMIX1 IN=E2FD1B INIFD1 OUT=FEED1
         77        BLOCK FSPLIT1 IN=E2FD OUT=E2FD2A E2FD1A
         78        BLOCK EFD1 IN=E2FD1A OUT=E2FD1B
         79        BLOCK EFD2 IN=E2FD2A OUT=E2FD2B
         80
         81    PROPERTIES POLYSL
         82        PROPERTIES STEAM-TA
         83
         84    PROP-DATA POLYSL
         85        IN-UNITS SI MASS-FLOW='kg/hr' MOLE-FLOW='kmol/hr'  &
         86            PRESSURE=bar PDROP='N/sqm'
         87        PROP-LIST SLTSTR / SLPSTR / SLRSTR
         88        PVAL E2 333.0 / 2400.0 / 631.0
         89        PVAL LDPE 667.70 / 3500.0 / 894.0
         90        PVAL INI1 530 / 3040 / 1120
         91        PVAL INI2 530 / 3040 / 1120
         92        PVAL WATER 623.0 / 2.6871390E+04 / 1105.0
         93
         94    PROP-DATA TGTM
         95        IN-UNITS SI MASS-FLOW='kg/hr' MOLE-FLOW='kmol/hr'  &
         96            PRESSURE=bar TEMPERATURE=C PDROP='N/sqm'
         97        PROP-LIST TGVK / TMVK / CRITMW
         98        PVAL LDPE -36.0 / 141.60 / 3500.0
         99
        100    PROP-DATA VLSTD
        101        IN-UNITS SI MASS-FLOW='kg/hr' MOLE-FLOW='kmol/hr'  &
        102            PRESSURE=bar TEMPERATURE=C PDROP='N/sqm'
        103        PROP-LIST VLSTD
        104        PVAL E2-SEG 0.0
        105
        106    PROP-DATA CPIG-1
        107        IN-UNITS SI MASS-FLOW='kg/hr' MOLE-FLOW='kmol/hr'  &
        108            PRESSURE=bar TEMPERATURE=C PDROP='N/sqm'
        109        PROP-LIST CPIG
        110        PVAL E2-SEG 35342.0 70.20
        111        PVAL E2 42291.0 47.3550
        112
        113    PROP-DATA MULMH-1
        114        IN-UNITS SI MASS-FLOW='kg/hr' MOLE-FLOW='kmol/hr'  &
        115            PRESSURE=bar TEMPERATURE=C PDROP='N/sqm'
        116        PROP-LIST MULMH
        117        PVAL LDPE .0005740 5000.0 7.54220 1.0 1.0
        118
        119    PROP-DATA SLETIJ-1
        120        IN-UNITS SI SHORT-LENGTH=mm
        121        PROP-LIST SLETIJ
        122        BPVAL LDPE E2 -.15 0.0 0.0 0.0 0.0 298.150000
        123        BPVAL E2 LDPE -.15 0.0 0.0 0.0 0.0 298.150000
        124
        125    PROP-DATA SLKIJ-1
        126        IN-UNITS SI SHORT-LENGTH=mm
        127        PROP-LIST SLKIJ
        128        BPVAL LDPE E2 .04 0.0 0.0 0.0 0.0 298.150000
        129        BPVAL E2 LDPE .04 0.0 0.0 0.0 0.0 298.150000
        130
        131    POLYMERS
        132        SEGMENTS E2-SEG REPEAT
        133        POLYMERS LDPE
        134        ATTRIBUTES LDPE DPN DPW PDI MWN MWW ZMOM FMOM SMOM  &
        135            SFLOW SFRAC FLCB FSCB LCB SCB LSFLOW LSFRAC LEFLOW  &
        136            LEFRAC
        137
        138    STREAM CIN1
        139        SUBSTREAM MIXED TEMP=160.0 PRES=100.0 NPHASE=1 PHASE=L
        140        MASS-FLOW WATER 160000.0
        141
        142    STREAM CIN2
        143        SUBSTREAM MIXED TEMP=160.0 PRES=100.0 NPHASE=1 PHASE=L
        144        MASS-FLOW WATER 160000.0
        145
        146    STREAM CIN3
        147        SUBSTREAM MIXED TEMP=160.0 PRES=100.0 NPHASE=1 PHASE=L
        148        MASS-FLOW WATER 160000.0
        149
        150    STREAM CIN4
        151        SUBSTREAM MIXED TEMP=160.0 PRES=100.0 NPHASE=1 PHASE=L
        152        MASS-FLOW WATER 160000.0
        153
        154    STREAM E2FD
        155        SUBSTREAM MIXED TEMP=100. PRES=2020.
        156        MASS-FLOW E2 65000.
        157
        158    STREAM E2FD1B
        159        SUBSTREAM MIXED TEMP=140. PRES=2010.
        160        MASS-FLOW E2 40000.
        161
        162    STREAM E2FD2B
        163        SUBSTREAM MIXED TEMP=50. PRES=2000.
        164        MASS-FLOW E2 25000.
        165
        166    STREAM FEED1
        167        SUBSTREAM MIXED TEMP=140. PRES=2000.0 MASS-FLOW=63000.0  &
        168            NPHASE=1 PHASE=L
        169        MASS-FRAC INI1 2.2E-005 / E2 0.999976 / INI2 1.1E-005
        170
        171    STREAM INIFD1
        172        SUBSTREAM MIXED TEMP=0. PRES=2010.
        173        MASS-FLOW INI1 6. / INI2 1.5
        174
        175    STREAM INIFD2
        176        SUBSTREAM MIXED TEMP=0. PRES=2010. NPHASE=1 PHASE=L
        177        MASS-FLOW INI1 12. / INI2 3.
        178
        179    BLOCK FDMIX1 MIXER
        180        PARAM PRES=2000. NPHASE=1 PHASE=L
        181        BLOCK-OPTION FREE-WATER=NO
        182
        183    BLOCK FDMIX2 MIXER
        184        PARAM PRES=1900. NPHASE=1 PHASE=L
        185
        186    BLOCK FSPLIT1 FSPLIT
        187        MASS-FLOW E2FD1A 40000.
        188
        189    BLOCK EFD1 HEATER
        190        PARAM TEMP=140. PRES=-10. NPHASE=1 PHASE=L DPPARMOPT=NO
        191        BLOCK-OPTION FREE-WATER=NO
        192
        193    BLOCK EFD2 HEATER
        194        PARAM TEMP=50. PRES=-20. NPHASE=1 PHASE=L DPPARMOPT=NO
        195        BLOCK-OPTION FREE-WATER=NO
        196
        197    BLOCK HPS FLASH2
        198        PARAM PRES=250.0 DUTY=0.0
        199
        200    BLOCK LPS FLASH2
        201        PARAM PRES=1.0 DUTY=0.0
        202
        203    BLOCK PFR1 RPLUG
        204        SUBROUTINE QTRANS=USRHPE
        205        USER-VECS NREALQ=2
        206        REALQ VALUE-LIST=40. 100.
        207        PARAM TYPE=COUNTER-COOL LENGTH=250.0 DIAM=.0590 NPHASE=1  &
        208            PHASE=L PDROP=100. <bar> NPOINT=40 INT-TOL=1E-005  &
        209            CORR-METHOD=DIRECT ERR-METHOD=STATIC
        210        COOLANT PDROP=4. <bar> NPHASE=1 PHASE=L TEMP=170.0
        211        PROPERTIES POLYSL FREE-WATER=STEAM-TA SOLU-WATER=3  &
        212            TRUE-COMPS=YES / STEAM-TA FREE-WATER=STEAM-TA  &
        213            SOLU-WATER=3 TRUE-COMPS=YES
        214        REACTIONS RXN-IDS=R1
        215
        216    BLOCK PFR2 RPLUG
        217        SUBROUTINE QTRANS=USRHPE
        218        USER-VECS NREALQ=2
        219        REALQ VALUE-LIST=40. 100.
        220        PARAM TYPE=COUNTER-COOL LENGTH=220.0 DIAM=.0590 NPHASE=1  &
        221            PHASE=L PDROP=100. <bar> NPOINT=20 INT-TOL=1E-005  &
        222            CORR-METHOD=DIRECT ERR-METHOD=STATIC
        223        COOLANT PDROP=4. <bar> NPHASE=1 PHASE=L TEMP=170.0
        224        PROPERTIES POLYSL FREE-WATER=STEAM-TA SOLU-WATER=3  &
        225            TRUE-COMPS=YES / STEAM-TA FREE-WATER=STEAM-TA  &
        226            SOLU-WATER=3 TRUE-COMPS=YES
        227        REACTIONS RXN-IDS=R1
        228
        229    BLOCK PFR3 RPLUG
        230        SUBROUTINE QTRANS=USRHPE
        231        USER-VECS NREALQ=2
        232        REALQ VALUE-LIST=40. 100.
        233        PARAM TYPE=COUNTER-COOL LENGTH=250.0 DIAM=.0590 NPHASE=1  &
        234            PHASE=L PDROP=100. <bar> NPOINT=40 INT-TOL=1E-005  &
        235            CORR-METHOD=DIRECT ERR-METHOD=STATIC
        236        COOLANT PDROP=4. <bar> NPHASE=1 PHASE=L TEMP=170.0
        237        PROPERTIES POLYSL FREE-WATER=STEAM-TA SOLU-WATER=3  &
        238            TRUE-COMPS=YES / STEAM-TA FREE-WATER=STEAM-TA  &
        239            SOLU-WATER=3 TRUE-COMPS=YES
        240        REACTIONS RXN-IDS=R1
        241
        242    BLOCK PFR4 RPLUG
        243        SUBROUTINE QTRANS=USRHPE
        244        USER-VECS NREALQ=2
        245        REALQ VALUE-LIST=40. 100.
        246        PARAM TYPE=COUNTER-COOL LENGTH=220.0 DIAM=.0590 NPHASE=1  &
        247            PHASE=L PDROP=100. <bar> NPOINT=20 INT-TOL=1E-005  &
        248            CORR-METHOD=DIRECT ERR-METHOD=STATIC
        249        COOLANT PDROP=4. <bar> NPHASE=1 PHASE=L TEMP=170.0
        250        PROPERTIES POLYSL FREE-WATER=STEAM-TA SOLU-WATER=3  &
        251            TRUE-COMPS=YES / STEAM-TA FREE-WATER=STEAM-TA  &
        252            SOLU-WATER=3 TRUE-COMPS=YES
        253        REACTIONS RXN-IDS=R1
        254
        255    EO-CONV-OPTI
        256
        257    CONV-OPTIONS
        258        PARAM CHECKSEQ=NO
        259
        260    STREAM-REPOR MOLEFLOW MASSFLOW MASSFRAC
        261
        262    PROPERTY-REP NOPCES
        263
        264    REACTIONS R1 FREE-RAD
        265        DESCRIPTION 'Free-Radical Kinetic Scheme'
        266        PARAM QSSA=YES
        267        SPECIES INITIATOR=INI1 INI2 MONOMER=E2 POLYMER=LDPE
        268        MON-RSEG E2 E2-SEG
        269        INIT-DEC INI1 PRE-EXP=3.8607E-006 ACT-ENERGY=1.2721E+008  &
        270            ACT-VOLUME=0.0 REF-TEMP=60 EFFIC=0.4 NRADS=2
        271        INIT-DEC INI2 PRE-EXP=3.2301713E-09 ACT-ENERGY=1.5346E+008  &
        272            ACT-VOLUME=0.0 REF-TEMP=60 EFFIC=0.4 NRADS=2
        273        CHAIN-INI E2 PRE-EXP=200082855.73 ACT-ENERGY=3.5300E+07  &
        274            ACT-VOLUME=0.0
        275        PROPAGATION E2 E2 PRE-EXP=233905232.91  &
        276            ACT-ENERGY=3.5300E+07 ACT-VOLUME=-.02130
        277        CHAT-MON E2 E2 PRE-EXP=1200919.9908 ACT-ENERGY=4.5400E+07  &
        278            ACT-VOLUME=0.0
        279        CHAT-POL E2 E2 PRE-EXP=1196278.112 ACT-ENERGY=3.0400E+07  &
        280            ACT-VOLUME=.00160
        281        B-SCISSION E2 PRE-EXP=63413707.324 ACT-ENERGY=4.5300E+07  &
        282            ACT-VOLUME=0.0
        283        TERM-DIS E2 E2 PRE-EXP=2152889890. ACT-ENERGY=4190000.0  &
        284            ACT-VOLUME=.0010
        285        TERM-COMB E2 E2 PRE-EXP=2453947556. ACT-ENERGY=4190000.0  &
        286            ACT-VOLUME=.0010
        287        SC-BRANCH E2 E2 PRE-EXP=1458839264.5 ACT-ENERGY=4.1600E+07  &
        288            ACT-VOLUME=0.0
        289    ;
        290    ;
        291    ;
        292    ;
        293    ;
 *** INPUT TRANSLATOR MESSAGES ***

  *** THIS RUN USES THE PROPERTIES ENTERPRISE DATABASE ***
      SQLLOCALDB.APESV140 : (DATAVERSION - 40.0.0.13)                         
      SQLLOCALDB.APV140 : (DATAVERSION - 40.0.0.13)                           
      SQLLOCALDB.FACTV140 : (DATAVERSION - 40.0.0.12)                         
      SQLLOCALDB.NISTV140 : (DATAVERSION - 40.0.0.12)                         

      INFORMATION WHILE CHECKING INPUT SPECIFICATIONS                           
      BLOCK NAME: PFR1    MODEL NAME: RPLUG                    (ZURE04.23)      
      RPLUG WILL CALCULATE THE THERMAL AND PHASE STATE                          
      FOR THE INLET COOLANT STREAM                                              

      INFORMATION WHILE CHECKING INPUT SPECIFICATIONS                           
      BLOCK NAME: PFR2    MODEL NAME: RPLUG                    (ZURE04.23)      
      RPLUG WILL CALCULATE THE THERMAL AND PHASE STATE                          
      FOR THE INLET COOLANT STREAM                                              

      INFORMATION WHILE CHECKING INPUT SPECIFICATIONS                           
      BLOCK NAME: PFR3    MODEL NAME: RPLUG                    (ZURE04.23)      
      RPLUG WILL CALCULATE THE THERMAL AND PHASE STATE                          
      FOR THE INLET COOLANT STREAM                                              

      INFORMATION WHILE CHECKING INPUT SPECIFICATIONS                           
      BLOCK NAME: PFR4    MODEL NAME: RPLUG                    (ZURE04.23)      
      RPLUG WILL CALCULATE THE THERMAL AND PHASE STATE                          
      FOR THE INLET COOLANT STREAM                                              
 
 

 PDF updated                                                                      TIME =      2.18

  *   WARNING IN PHYSICAL PROPERTY SYSTEM WHILE INITIALIZING PROPERTY MODELS    
                                                               (ESPSLI.1)       
      EQUATION OF STATE MODEL POLYSL HAS MISSING PARAMETERS:                    
      SLPSTR (DATA SET 1) MISSING FOR SEGMENT E2-SEG                            
      A NOMINAL VALUE OF  3000. (bar) ASSUMED                                   

  *   WARNING IN PHYSICAL PROPERTY SYSTEM WHILE INITIALIZING PROPERTY MODELS    
                                                               (ESPSLI.2)       
      SLTSTR (DATA SET 1) MISSING FOR SEGMENT E2-SEG                            
      A NOMINAL VALUE OF  415. (K) ASSUMED                                      

  *   WARNING IN PHYSICAL PROPERTY SYSTEM WHILE INITIALIZING PROPERTY MODELS    
                                                               (ESPSLI.3)       
      SLRSTR (DATA SET 1) MISSING FOR SEGMENT E2-SEG                            
      A NOMINAL VALUE OF  736. (KG/CUM) ASSUMED                                 

 *** CALCULATION TRACE ***

 HIGH-PRESSURE LDPE TUBULAR REACTOR FLOWSHEET WITH FOUR SECTIONS 

 *** FLOWSHEET ANALYSIS MESSAGES ***

 FLOWSHEET CONNECTIVITY BY STREAMS       

   STREAM     SOURCE     DEST           STREAM     SOURCE     DEST
   CIN1       ----       PFR1           CIN2       ----       PFR2    
   INIFD2     ----       FDMIX2         CIN3       ----       PFR3    
   CIN4       ----       PFR4           INIFD1     ----       FDMIX1  
   E2FD       ----       FSPLIT1        OUT1       PFR1       PFR2    
   COUT1      PFR1       ----           OUT2       PFR2       FDMIX2  
   COUT2      PFR2       ----           FEED2      FDMIX2     PFR3    
   OUT3       PFR3       PFR4           COUT3      PFR3       ----    
   OUT4       PFR4       HPS            COUT4      PFR4       ----    
   HP-RECY    HPS        ----           HPSB       HPS        LPS     
   LP-RECY    LPS        ----           LPSB       LPS        ----    
   FEED1      FDMIX1     PFR1           E2FD2A     FSPLIT1    EFD2    
   E2FD1A     FSPLIT1    EFD1           E2FD1B     EFD1       FDMIX1  
   E2FD2B     EFD2       FDMIX2                                       

 FLOWSHEET CONNECTIVITY BY BLOCKS        

   BLOCK        INLETS                         OUTLETS
   PFR1         FEED1 CIN1                     OUT1 COUT1                  
   PFR2         OUT1 CIN2                      OUT2 COUT2                  
   FDMIX2       OUT2 INIFD2 E2FD2B             FEED2                       
   PFR3         FEED2 CIN3                     OUT3 COUT3                  
   PFR4         OUT3 CIN4                      OUT4 COUT4                  
   HPS          OUT4                           HP-RECY HPSB                
   LPS          HPSB                           LP-RECY LPSB                
   FDMIX1       E2FD1B INIFD1                  FEED1                       
   FSPLIT1      E2FD                           E2FD2A E2FD1A               
   EFD1         E2FD1A                         E2FD1B                      
   EFD2         E2FD2A                         E2FD2B                      

      COMPUTATION ORDER FOR THE FLOWSHEET IS:
      FSPLIT1 EFD1 EFD2 FDMIX1 PFR1 PFR2 FDMIX2 PFR3 PFR4 HPS LPS 

Calculations begin                                                              time      1.72


 SIMULATION CALCULATIONS BEGIN                                                    TIME =      1.72

      ENTHALPY CALCULATION FOR INLET STREAM E2FD OF BLOCK FSPLIT1                 TIME =      1.72
      KODE = 2  NTRIAL =   0  T = 373.1500  P = 2.020000E+08  V =  1.00000      Q =  0.00000    

      UOS BLOCK FSPLIT1  MODEL: FSPLIT                                            TIME =      1.72
      SPLIT FRACTIONS:  0.38462D+00    0.61538D+00

      UOS BLOCK EFD1     MODEL: HEATER                                            TIME =      1.72
      KODE = 2   NO. TEMP ITER =    1     TEMP =  413.150    
      KPHASE =    2 KODE =    2 T =  413.150     P = 2.010000E+08 Q =  858159.    

      UOS BLOCK EFD2     MODEL: HEATER                                            TIME =      1.72
      KODE = 2   NO. TEMP ITER =    1     TEMP =  323.150    
      KPHASE =    2 KODE =    2 T =  323.150     P = 2.000000E+08 Q = -662061.    

      ENTHALPY CALCULATION FOR INLET STREAM INIFD1 OF BLOCK FDMIX1                TIME =      1.72
      KODE = 2  NTRIAL =   4  T = 273.1500  P = 2.010000E+08  V =  0.00000      Q =  0.00000    

      UOS BLOCK FDMIX1   MODEL: MIXER                                             TIME =      1.72
      KODE = 1   NO. TEMP ITER =    6     TEMP =  413.757    
      KPHASE =    2 KODE =    1 T =  413.757     P = 2.000000E+08 Q =  0.00000    

      ENTHALPY CALCULATION FOR INLET STREAM CIN1 OF BLOCK PFR1                    TIME =      1.72
      KODE = 2   NO. TEMP ITER =    1     TEMP =  433.150    
      KPHASE =    2 KODE =    2 T =  433.150     P = 1.000000E+07 Q =  0.00000    

      UOS BLOCK PFR1     MODEL: RPLUG                                             TIME =      1.72
        AT REACTOR EXIT :
        LENGTH =   250.00      DIAMETER =  0.59000E-01  RESIDENCE TIME =   30.932    
        PROCESS STREAM T =    496.76     P =   0.19000E+09 H =   0.20212E+08 V =    0.0000    
        COOLANT STREAM T =    432.94     P =   0.10000E+08 H =  -0.67959E+09 V =    0.0000    
        MIN T =   413.757     AT Z/LENGTH =   0.00000     MAX T =   566.693     AT Z/LENGTH =  0.189332    

      ENTHALPY CALCULATION FOR INLET STREAM CIN2 OF BLOCK PFR2                    TIME =      1.74
      KODE = 2   NO. TEMP ITER =    1     TEMP =  433.150    
      KPHASE =    2 KODE =    2 T =  433.150     P = 1.000000E+07 Q =  0.00000    

      UOS BLOCK PFR2     MODEL: RPLUG                                             TIME =      1.74
        AT REACTOR EXIT :
        LENGTH =   220.00      DIAMETER =  0.59000E-01  RESIDENCE TIME =   27.795    
        PROCESS STREAM T =    466.86     P =   0.18000E+09 H =   0.19371E+08 V =    0.0000    
        COOLANT STREAM T =    438.65     P =   0.10000E+08 H =  -0.67851E+09 V =    0.0000    
        MIN T =   466.857     AT Z/LENGTH =   1.00000     MAX T =   496.761     AT Z/LENGTH =   0.00000    

      ENTHALPY CALCULATION FOR INLET STREAM INIFD2 OF BLOCK FDMIX2                TIME =      1.74
      KODE = 2   NO. TEMP ITER =    1     TEMP =  273.150    
      KPHASE =    2 KODE =    2 T =  273.150     P = 2.010000E+08 Q =  0.00000    

      UOS BLOCK FDMIX2   MODEL: MIXER                                             TIME =      1.74
      KODE = 1   NO. TEMP ITER =    6     TEMP =  412.829    
      KPHASE =    2 KODE =    1 T =  412.829     P = 1.900000E+08 Q =  0.00000    

      ENTHALPY CALCULATION FOR INLET STREAM CIN3 OF BLOCK PFR3                    TIME =      1.74
      KODE = 2   NO. TEMP ITER =    1     TEMP =  433.150    
      KPHASE =    2 KODE =    2 T =  433.150     P = 1.000000E+07 Q =  0.00000    

      UOS BLOCK PFR3     MODEL: RPLUG                                             TIME =      1.74
        AT REACTOR EXIT :
        LENGTH =   250.00      DIAMETER =  0.59000E-01  RESIDENCE TIME =   19.108    
        PROCESS STREAM T =    526.39     P =   0.18000E+09 H =   0.30110E+08 V =    0.0000    
        COOLANT STREAM T =    432.35     P =   0.10000E+08 H =  -0.67956E+09 V =    0.0000    
        MIN T =   412.829     AT Z/LENGTH =   0.00000     MAX T =   566.351     AT Z/LENGTH =  0.319383    

      ENTHALPY CALCULATION FOR INLET STREAM CIN4 OF BLOCK PFR4                    TIME =      1.78
      KODE = 2   NO. TEMP ITER =    1     TEMP =  433.150    
      KPHASE =    2 KODE =    2 T =  433.150     P = 1.000000E+07 Q =  0.00000    

      UOS BLOCK PFR4     MODEL: RPLUG                                             TIME =      1.78
        AT REACTOR EXIT :
        LENGTH =   220.00      DIAMETER =  0.59000E-01  RESIDENCE TIME =   16.840    
        PROCESS STREAM T =    494.51     P =   0.17000E+09 H =   0.28644E+08 V =    0.0000    
        COOLANT STREAM T =    434.77     P =   0.10000E+08 H =  -0.67913E+09 V =    0.0000    
        MIN T =   494.506     AT Z/LENGTH =   1.00000     MAX T =   526.388     AT Z/LENGTH =   0.00000    

      UOS BLOCK HPS      MODEL: FLASH2                                            TIME =      1.80
      KODE = 1  NTRIAL =  10  T = 518.2914  P = 2.500000E+07  V = 0.828350      Q =  0.00000    

      UOS BLOCK LPS      MODEL: FLASH2                                            TIME =      1.80
      KODE = 1  NTRIAL =   6  T = 519.7722  P =  100000.      V = 0.106604      Q =  0.00000    

      GENERATING RESULTS FOR UOS BLOCK EFD1     MODEL: HEATER                     TIME =      1.80

      GENERATING RESULTS FOR UOS BLOCK EFD2     MODEL: HEATER                     TIME =      1.80

 Report Writer entered                                                            Time =      1.81

 Results generated                                                                Time =      2.13


*** INPUT SPECIFICATION MESSAGES ***

 BLOCK        PFR1     IS GENERATED BECAUSE OF OTHER CHANGES 05/16/2025   19:18:51:99 
 BLOCK PFR1 RPLUG
     SUBROUTINE QTRANS=USRHPE
     USER-VECS NREALQ=2
     REALQ VALUE-LIST=40. 100.
     PARAM TYPE=COUNTER-COOL LENGTH=250.0 DIAM=.0590 NPHASE=1  &
         PHASE=L PDROP=100. <BAR> NPOINT=40 INT-TOL=1E-005  &
         CORR-METHOD=DIRECT ERR-METHOD=STATIC
     COOLANT PDROP=4. <BAR> NPHASE=1 PHASE=L TEMP=170.0
     PROPERTIES POLYSL FREE-WATER=STEAM-TA SOLU-WATER=3  &
         TRUE-COMPS=YES / STEAM-TA FREE-WATER=STEAM-TA  &
         SOLU-WATER=3 TRUE-COMPS=YES
     REACTIONS RXN-IDS=R1

 BLOCK        PFR2     IS GENERATED BECAUSE OF OTHER CHANGES 05/16/2025   19:18:51:99 
 BLOCK PFR2 RPLUG
     SUBROUTINE QTRANS=USRHPE
     USER-VECS NREALQ=2
     REALQ VALUE-LIST=40. 100.
     PARAM TYPE=COUNTER-COOL LENGTH=220.0 DIAM=.0590 NPHASE=1  &
         PHASE=L PDROP=100. <BAR> NPOINT=20 INT-TOL=1E-005  &
         CORR-METHOD=DIRECT ERR-METHOD=STATIC
     COOLANT PDROP=4. <BAR> NPHASE=1 PHASE=L TEMP=170.0
     PROPERTIES POLYSL FREE-WATER=STEAM-TA SOLU-WATER=3  &
         TRUE-COMPS=YES / STEAM-TA FREE-WATER=STEAM-TA  &
         SOLU-WATER=3 TRUE-COMPS=YES
     REACTIONS RXN-IDS=R1

 BLOCK        PFR3     IS GENERATED BECAUSE OF OTHER CHANGES 05/16/2025   19:18:51:99 
 BLOCK PFR3 RPLUG
     SUBROUTINE QTRANS=USRHPE
     USER-VECS NREALQ=2
     REALQ VALUE-LIST=40. 100.
     PARAM TYPE=COUNTER-COOL LENGTH=250.0 DIAM=.0590 NPHASE=1  &
         PHASE=L PDROP=100. <BAR> NPOINT=40 INT-TOL=1E-005  &
         CORR-METHOD=DIRECT ERR-METHOD=STATIC
     COOLANT PDROP=4. <BAR> NPHASE=1 PHASE=L TEMP=170.0
     PROPERTIES POLYSL FREE-WATER=STEAM-TA SOLU-WATER=3  &
         TRUE-COMPS=YES / STEAM-TA FREE-WATER=STEAM-TA  &
         SOLU-WATER=3 TRUE-COMPS=YES
     REACTIONS RXN-IDS=R1

 BLOCK        PFR4     IS GENERATED BECAUSE OF OTHER CHANGES 05/16/2025   19:18:51:99 
 BLOCK PFR4 RPLUG
     SUBROUTINE QTRANS=USRHPE
     USER-VECS NREALQ=2
     REALQ VALUE-LIST=40. 100.
     PARAM TYPE=COUNTER-COOL LENGTH=220.0 DIAM=.0590 NPHASE=1  &
         PHASE=L PDROP=100. <BAR> NPOINT=20 INT-TOL=1E-005  &
         CORR-METHOD=DIRECT ERR-METHOD=STATIC
     COOLANT PDROP=4. <BAR> NPHASE=1 PHASE=L TEMP=170.0
     PROPERTIES POLYSL FREE-WATER=STEAM-TA SOLU-WATER=3  &
         TRUE-COMPS=YES / STEAM-TA FREE-WATER=STEAM-TA  &
         SOLU-WATER=3 TRUE-COMPS=YES
     REACTIONS RXN-IDS=R1

 CHANGES WERE MADE TO REACTIONS    R1       05/16/2025   19:18:51:99 
 REACTIONS R1 FREE-RAD
     DESCRIPTION 'Free-Radical Kinetic Scheme'
     PARAM QSSA=YES
     SPECIES INITIATOR=INI1 INI2 MONOMER=E2 POLYMER=LDPE
     MON-RSEG E2 E2-SEG
     INIT-DEC INI1 PRE-EXP=3.8607E-006 ACT-ENERGY=1.2721E+008  &
         ACT-VOLUME=0.0 REF-TEMP=60 EFFIC=0.4 NRADS=2
     INIT-DEC INI2 PRE-EXP=3.4311253E-09 ACT-ENERGY=1.5346E+008  &
         ACT-VOLUME=0.0 REF-TEMP=60 EFFIC=0.4 NRADS=2
     CHAIN-INI E2 PRE-EXP=295722921.04 ACT-ENERGY=3.5300E+07  &
         ACT-VOLUME=0.0
     PROPAGATION E2 E2 PRE-EXP=221959223.79  &
         ACT-ENERGY=3.5300E+07 ACT-VOLUME=-.02130
     CHAT-MON E2 E2 PRE-EXP=1107526.7932 ACT-ENERGY=4.5400E+07  &
         ACT-VOLUME=0.0
     CHAT-POL E2 E2 PRE-EXP=1383644.3838 ACT-ENERGY=3.0400E+07  &
         ACT-VOLUME=.00160
     B-SCISSION E2 PRE-EXP=68386319.789 ACT-ENERGY=4.5300E+07  &
         ACT-VOLUME=0.0
     TERM-DIS E2 E2 PRE-EXP=2869745135. ACT-ENERGY=4190000.0  &
         ACT-VOLUME=.0010
     TERM-COMB E2 E2 PRE-EXP=2792274749. ACT-ENERGY=4190000.0  &
         ACT-VOLUME=.0010
     SC-BRANCH E2 E2 PRE-EXP=1423531855.1 ACT-ENERGY=4.1600E+07  &
         ACT-VOLUME=0.0

 PDF updated                                                                      TIME =      2.69
 THIS COPY OF ASPEN PLUS LICENSED TO                                 

      INFORMATION WHILE CHECKING INPUT SPECIFICATIONS                           
      BLOCK NAME: PFR1    MODEL NAME: RPLUG                    (ZURE04.23)      
      RPLUG WILL CALCULATE THE THERMAL AND PHASE STATE                          
      FOR THE INLET COOLANT STREAM                                              

      INFORMATION WHILE CHECKING INPUT SPECIFICATIONS                           
      BLOCK NAME: PFR2    MODEL NAME: RPLUG                    (ZURE04.23)      
      RPLUG WILL CALCULATE THE THERMAL AND PHASE STATE                          
      FOR THE INLET COOLANT STREAM                                              

      INFORMATION WHILE CHECKING INPUT SPECIFICATIONS                           
      BLOCK NAME: PFR3    MODEL NAME: RPLUG                    (ZURE04.23)      
      RPLUG WILL CALCULATE THE THERMAL AND PHASE STATE                          
      FOR THE INLET COOLANT STREAM                                              

      INFORMATION WHILE CHECKING INPUT SPECIFICATIONS                           
      BLOCK NAME: PFR4    MODEL NAME: RPLUG                    (ZURE04.23)      
      RPLUG WILL CALCULATE THE THERMAL AND PHASE STATE                          
      FOR THE INLET COOLANT STREAM                                              
 
 


Calculations begin                                                              time      2.84


      UOS BLOCK PFR1     MODEL: RPLUG                                             TIME =      2.84
        AT REACTOR EXIT :
        LENGTH =   250.00      DIAMETER =  0.59000E-01  RESIDENCE TIME =   31.015    
        PROCESS STREAM T =    495.03     P =   0.19000E+09 H =   0.20368E+08 V =    0.0000    
        COOLANT STREAM T =    433.76     P =   0.10000E+08 H =  -0.67943E+09 V =    0.0000    
        MIN T =   413.757     AT Z/LENGTH =   0.00000     MAX T =   557.605     AT Z/LENGTH =  0.237178    

      UOS BLOCK PFR2     MODEL: RPLUG                                             TIME =      2.86
        AT REACTOR EXIT :
        LENGTH =   220.00      DIAMETER =  0.59000E-01  RESIDENCE TIME =   27.776    
        PROCESS STREAM T =    465.88     P =   0.18000E+09 H =   0.19546E+08 V =    0.0000    
        COOLANT STREAM T =    438.73     P =   0.10000E+08 H =  -0.67849E+09 V =    0.0000    
        MIN T =   465.876     AT Z/LENGTH =   1.00000     MAX T =   495.030     AT Z/LENGTH =   0.00000    

      UOS BLOCK FDMIX2   MODEL: MIXER                                             TIME =      2.86
      KODE = 1   NO. TEMP ITER =    4     TEMP =  412.214    
      KPHASE =    2 KODE =    1 T =  412.214     P = 1.900000E+08 Q =  0.00000    

      UOS BLOCK PFR3     MODEL: RPLUG                                             TIME =      2.86
        AT REACTOR EXIT :
        LENGTH =   250.00      DIAMETER =  0.59000E-01  RESIDENCE TIME =   19.183    
        PROCESS STREAM T =    524.00     P =   0.18000E+09 H =   0.30526E+08 V =    0.0000    
        COOLANT STREAM T =    433.77     P =   0.10000E+08 H =  -0.67932E+09 V =    0.0000    
        MIN T =   412.214     AT Z/LENGTH =   0.00000     MAX T =   557.298     AT Z/LENGTH =  0.404889    

      UOS BLOCK PFR4     MODEL: RPLUG                                             TIME =      2.88
        AT REACTOR EXIT :
        LENGTH =   220.00      DIAMETER =  0.59000E-01  RESIDENCE TIME =   16.818    
        PROCESS STREAM T =    492.62     P =   0.17000E+09 H =   0.29082E+08 V =    0.0000    
        COOLANT STREAM T =    434.90     P =   0.10000E+08 H =  -0.67911E+09 V =    0.0000    
        MIN T =   492.623     AT Z/LENGTH =   1.00000     MAX T =   523.997     AT Z/LENGTH =   0.00000    

      UOS BLOCK HPS      MODEL: FLASH2                                            TIME =      2.89
      KODE = 1  NTRIAL =   3  T = 516.0590  P = 2.500000E+07  V = 0.837279      Q =  0.00000    

      UOS BLOCK LPS      MODEL: FLASH2                                            TIME =      2.89
      KODE = 1  NTRIAL =   2  T = 517.4739  P =  100000.      V = 0.106957      Q =  0.00000    

 Report Writer entered                                                            Time =      2.90

 Results generated                                                                Time =      3.15


*** INPUT SPECIFICATION MESSAGES ***

 BLOCK        PFR1     IS GENERATED BECAUSE OF OTHER CHANGES 05/16/2025   19:18:52:99 
 BLOCK PFR1 RPLUG
     SUBROUTINE QTRANS=USRHPE
     USER-VECS NREALQ=2
     REALQ VALUE-LIST=40. 100.
     PARAM TYPE=COUNTER-COOL LENGTH=250.0 DIAM=.0590 NPHASE=1  &
         PHASE=L PDROP=100. <BAR> NPOINT=40 INT-TOL=1E-005  &
         CORR-METHOD=DIRECT ERR-METHOD=STATIC
     COOLANT PDROP=4. <BAR> NPHASE=1 PHASE=L TEMP=170.0
     PROPERTIES POLYSL FREE-WATER=STEAM-TA SOLU-WATER=3  &
         TRUE-COMPS=YES / STEAM-TA FREE-WATER=STEAM-TA  &
         SOLU-WATER=3 TRUE-COMPS=YES
     REACTIONS RXN-IDS=R1

 BLOCK        PFR2     IS GENERATED BECAUSE OF OTHER CHANGES 05/16/2025   19:18:52:99 
 BLOCK PFR2 RPLUG
     SUBROUTINE QTRANS=USRHPE
     USER-VECS NREALQ=2
     REALQ VALUE-LIST=40. 100.
     PARAM TYPE=COUNTER-COOL LENGTH=220.0 DIAM=.0590 NPHASE=1  &
         PHASE=L PDROP=100. <BAR> NPOINT=20 INT-TOL=1E-005  &
         CORR-METHOD=DIRECT ERR-METHOD=STATIC
     COOLANT PDROP=4. <BAR> NPHASE=1 PHASE=L TEMP=170.0
     PROPERTIES POLYSL FREE-WATER=STEAM-TA SOLU-WATER=3  &
         TRUE-COMPS=YES / STEAM-TA FREE-WATER=STEAM-TA  &
         SOLU-WATER=3 TRUE-COMPS=YES
     REACTIONS RXN-IDS=R1

 BLOCK        PFR3     IS GENERATED BECAUSE OF OTHER CHANGES 05/16/2025   19:18:52:99 
 BLOCK PFR3 RPLUG
     SUBROUTINE QTRANS=USRHPE
     USER-VECS NREALQ=2
     REALQ VALUE-LIST=40. 100.
     PARAM TYPE=COUNTER-COOL LENGTH=250.0 DIAM=.0590 NPHASE=1  &
         PHASE=L PDROP=100. <BAR> NPOINT=40 INT-TOL=1E-005  &
         CORR-METHOD=DIRECT ERR-METHOD=STATIC
     COOLANT PDROP=4. <BAR> NPHASE=1 PHASE=L TEMP=170.0
     PROPERTIES POLYSL FREE-WATER=STEAM-TA SOLU-WATER=3  &
         TRUE-COMPS=YES / STEAM-TA FREE-WATER=STEAM-TA  &
         SOLU-WATER=3 TRUE-COMPS=YES
     REACTIONS RXN-IDS=R1

 BLOCK        PFR4     IS GENERATED BECAUSE OF OTHER CHANGES 05/16/2025   19:18:52:99 
 BLOCK PFR4 RPLUG
     SUBROUTINE QTRANS=USRHPE
     USER-VECS NREALQ=2
     REALQ VALUE-LIST=40. 100.
     PARAM TYPE=COUNTER-COOL LENGTH=220.0 DIAM=.0590 NPHASE=1  &
         PHASE=L PDROP=100. <BAR> NPOINT=20 INT-TOL=1E-005  &
         CORR-METHOD=DIRECT ERR-METHOD=STATIC
     COOLANT PDROP=4. <BAR> NPHASE=1 PHASE=L TEMP=170.0
     PROPERTIES POLYSL FREE-WATER=STEAM-TA SOLU-WATER=3  &
         TRUE-COMPS=YES / STEAM-TA FREE-WATER=STEAM-TA  &
         SOLU-WATER=3 TRUE-COMPS=YES
     REACTIONS RXN-IDS=R1

 CHANGES WERE MADE TO REACTIONS    R1       05/16/2025   19:18:52:99 
 REACTIONS R1 FREE-RAD
     DESCRIPTION 'Free-Radical Kinetic Scheme'
     PARAM QSSA=YES
     SPECIES INITIATOR=INI1 INI2 MONOMER=E2 POLYMER=LDPE
     MON-RSEG E2 E2-SEG
     INIT-DEC INI1 PRE-EXP=3.8607E-006 ACT-ENERGY=1.2721E+008  &
         ACT-VOLUME=0.0 REF-TEMP=60 EFFIC=0.4 NRADS=2
     INIT-DEC INI2 PRE-EXP=3.7042629E-09 ACT-ENERGY=1.5346E+008  &
         ACT-VOLUME=0.0 REF-TEMP=60 EFFIC=0.4 NRADS=2
     CHAIN-INI E2 PRE-EXP=270787716.61 ACT-ENERGY=3.5300E+07  &
         ACT-VOLUME=0.0
     PROPAGATION E2 E2 PRE-EXP=230965265.45  &
         ACT-ENERGY=3.5300E+07 ACT-VOLUME=-.02130
     CHAT-MON E2 E2 PRE-EXP=1411171.1703 ACT-ENERGY=4.5400E+07  &
         ACT-VOLUME=0.0
     CHAT-POL E2 E2 PRE-EXP=1484272.8235 ACT-ENERGY=3.0400E+07  &
         ACT-VOLUME=.00160
     B-SCISSION E2 PRE-EXP=54073543.982 ACT-ENERGY=4.5300E+07  &
         ACT-VOLUME=0.0
     TERM-DIS E2 E2 PRE-EXP=2026817055. ACT-ENERGY=4190000.0  &
         ACT-VOLUME=.0010
     TERM-COMB E2 E2 PRE-EXP=2201529655. ACT-ENERGY=4190000.0  &
         ACT-VOLUME=.0010
     SC-BRANCH E2 E2 PRE-EXP=1355747118.5 ACT-ENERGY=4.1600E+07  &
         ACT-VOLUME=0.0

 PDF updated                                                                      TIME =      3.59
 THIS COPY OF ASPEN PLUS LICENSED TO                                 

      INFORMATION WHILE CHECKING INPUT SPECIFICATIONS                           
      BLOCK NAME: PFR1    MODEL NAME: RPLUG                    (ZURE04.23)      
      RPLUG WILL CALCULATE THE THERMAL AND PHASE STATE                          
      FOR THE INLET COOLANT STREAM                                              

      INFORMATION WHILE CHECKING INPUT SPECIFICATIONS                           
      BLOCK NAME: PFR2    MODEL NAME: RPLUG                    (ZURE04.23)      
      RPLUG WILL CALCULATE THE THERMAL AND PHASE STATE                          
      FOR THE INLET COOLANT STREAM                                              

      INFORMATION WHILE CHECKING INPUT SPECIFICATIONS                           
      BLOCK NAME: PFR3    MODEL NAME: RPLUG                    (ZURE04.23)      
      RPLUG WILL CALCULATE THE THERMAL AND PHASE STATE                          
      FOR THE INLET COOLANT STREAM                                              

      INFORMATION WHILE CHECKING INPUT SPECIFICATIONS                           
      BLOCK NAME: PFR4    MODEL NAME: RPLUG                    (ZURE04.23)      
      RPLUG WILL CALCULATE THE THERMAL AND PHASE STATE                          
      FOR THE INLET COOLANT STREAM                                              
 
 


Calculations begin                                                              time      3.62


      UOS BLOCK PFR1     MODEL: RPLUG                                             TIME =      3.62
        AT REACTOR EXIT :
        LENGTH =   250.00      DIAMETER =  0.59000E-01  RESIDENCE TIME =   30.940    
        PROCESS STREAM T =    495.77     P =   0.19000E+09 H =   0.20227E+08 V =    0.0000    
        COOLANT STREAM T =    432.07     P =   0.10000E+08 H =  -0.67957E+09 V =    0.0000    
        MIN T =   413.757     AT Z/LENGTH =   0.00000     MAX T =   565.569     AT Z/LENGTH =  0.179507    

      UOS BLOCK PFR2     MODEL: RPLUG                                             TIME =      3.63
        AT REACTOR EXIT :
        LENGTH =   220.00      DIAMETER =  0.59000E-01  RESIDENCE TIME =   27.799    
        PROCESS STREAM T =    466.52     P =   0.18000E+09 H =   0.19402E+08 V =    0.0000    
        COOLANT STREAM T =    438.71     P =   0.10000E+08 H =  -0.67849E+09 V =    0.0000    
        MIN T =   466.515     AT Z/LENGTH =   1.00000     MAX T =   495.767     AT Z/LENGTH =   0.00000    

      UOS BLOCK FDMIX2   MODEL: MIXER                                             TIME =      3.63
      KODE = 1   NO. TEMP ITER =    4     TEMP =  412.611    
      KPHASE =    2 KODE =    1 T =  412.611     P = 1.900000E+08 Q =  0.00000    

      UOS BLOCK PFR3     MODEL: RPLUG                                             TIME =      3.63
        AT REACTOR EXIT :
        LENGTH =   250.00      DIAMETER =  0.59000E-01  RESIDENCE TIME =   19.106    
        PROCESS STREAM T =    525.00     P =   0.18000E+09 H =   0.30146E+08 V =    0.0000    
        COOLANT STREAM T =    432.73     P =   0.10000E+08 H =  -0.67955E+09 V =    0.0000    
        MIN T =   412.611     AT Z/LENGTH =   0.00000     MAX T =   565.228     AT Z/LENGTH =  0.304840    

      UOS BLOCK PFR4     MODEL: RPLUG                                             TIME =      3.64
        AT REACTOR EXIT :
        LENGTH =   220.00      DIAMETER =  0.59000E-01  RESIDENCE TIME =   16.846    
        PROCESS STREAM T =    493.76     P =   0.17000E+09 H =   0.28706E+08 V =    0.0000    
        COOLANT STREAM T =    434.87     P =   0.10000E+08 H =  -0.67911E+09 V =    0.0000    
        MIN T =   493.763     AT Z/LENGTH =   1.00000     MAX T =   525.003     AT Z/LENGTH =   0.00000    

      UOS BLOCK HPS      MODEL: FLASH2                                            TIME =      3.64
      KODE = 1  NTRIAL =   3  T = 517.5129  P = 2.500000E+07  V = 0.829941      Q =  0.00000    

      UOS BLOCK LPS      MODEL: FLASH2                                            TIME =      3.65
      KODE = 1  NTRIAL =   1  T = 518.9721  P =  100000.      V = 0.106709      Q =  0.00000    

 Report Writer entered                                                            Time =      3.65

 Results generated                                                                Time =      3.94


*** INPUT SPECIFICATION MESSAGES ***

 BLOCK        PFR1     IS GENERATED BECAUSE OF OTHER CHANGES 05/16/2025   19:18:53:99 
 BLOCK PFR1 RPLUG
     SUBROUTINE QTRANS=USRHPE
     USER-VECS NREALQ=2
     REALQ VALUE-LIST=40. 100.
     PARAM TYPE=COUNTER-COOL LENGTH=250.0 DIAM=.0590 NPHASE=1  &
         PHASE=L PDROP=100. <BAR> NPOINT=40 INT-TOL=1E-005  &
         CORR-METHOD=DIRECT ERR-METHOD=STATIC
     COOLANT PDROP=4. <BAR> NPHASE=1 PHASE=L TEMP=170.0
     PROPERTIES POLYSL FREE-WATER=STEAM-TA SOLU-WATER=3  &
         TRUE-COMPS=YES / STEAM-TA FREE-WATER=STEAM-TA  &
         SOLU-WATER=3 TRUE-COMPS=YES
     REACTIONS RXN-IDS=R1

 BLOCK        PFR2     IS GENERATED BECAUSE OF OTHER CHANGES 05/16/2025   19:18:53:99 
 BLOCK PFR2 RPLUG
     SUBROUTINE QTRANS=USRHPE
     USER-VECS NREALQ=2
     REALQ VALUE-LIST=40. 100.
     PARAM TYPE=COUNTER-COOL LENGTH=220.0 DIAM=.0590 NPHASE=1  &
         PHASE=L PDROP=100. <BAR> NPOINT=20 INT-TOL=1E-005  &
         CORR-METHOD=DIRECT ERR-METHOD=STATIC
     COOLANT PDROP=4. <BAR> NPHASE=1 PHASE=L TEMP=170.0
     PROPERTIES POLYSL FREE-WATER=STEAM-TA SOLU-WATER=3  &
         TRUE-COMPS=YES / STEAM-TA FREE-WATER=STEAM-TA  &
         SOLU-WATER=3 TRUE-COMPS=YES
     REACTIONS RXN-IDS=R1

 BLOCK        PFR3     IS GENERATED BECAUSE OF OTHER CHANGES 05/16/2025   19:18:53:99 
 BLOCK PFR3 RPLUG
     SUBROUTINE QTRANS=USRHPE
     USER-VECS NREALQ=2
     REALQ VALUE-LIST=40. 100.
     PARAM TYPE=COUNTER-COOL LENGTH=250.0 DIAM=.0590 NPHASE=1  &
         PHASE=L PDROP=100. <BAR> NPOINT=40 INT-TOL=1E-005  &
         CORR-METHOD=DIRECT ERR-METHOD=STATIC
     COOLANT PDROP=4. <BAR> NPHASE=1 PHASE=L TEMP=170.0
     PROPERTIES POLYSL FREE-WATER=STEAM-TA SOLU-WATER=3  &
         TRUE-COMPS=YES / STEAM-TA FREE-WATER=STEAM-TA  &
         SOLU-WATER=3 TRUE-COMPS=YES
     REACTIONS RXN-IDS=R1

 BLOCK        PFR4     IS GENERATED BECAUSE OF OTHER CHANGES 05/16/2025   19:18:53:99 
 BLOCK PFR4 RPLUG
     SUBROUTINE QTRANS=USRHPE
     USER-VECS NREALQ=2
     REALQ VALUE-LIST=40. 100.
     PARAM TYPE=COUNTER-COOL LENGTH=220.0 DIAM=.0590 NPHASE=1  &
         PHASE=L PDROP=100. <BAR> NPOINT=20 INT-TOL=1E-005  &
         CORR-METHOD=DIRECT ERR-METHOD=STATIC
     COOLANT PDROP=4. <BAR> NPHASE=1 PHASE=L TEMP=170.0
     PROPERTIES POLYSL FREE-WATER=STEAM-TA SOLU-WATER=3  &
         TRUE-COMPS=YES / STEAM-TA FREE-WATER=STEAM-TA  &
         SOLU-WATER=3 TRUE-COMPS=YES
     REACTIONS RXN-IDS=R1

 CHANGES WERE MADE TO REACTIONS    R1       05/16/2025   19:18:53:99 
 REACTIONS R1 FREE-RAD
     DESCRIPTION 'Free-Radical Kinetic Scheme'
     PARAM QSSA=YES
     SPECIES INITIATOR=INI1 INI2 MONOMER=E2 POLYMER=LDPE
     MON-RSEG E2 E2-SEG
     INIT-DEC INI1 PRE-EXP=3.8607E-006 ACT-ENERGY=1.2721E+008  &
         ACT-VOLUME=0.0 REF-TEMP=60 EFFIC=0.4 NRADS=2
     INIT-DEC INI2 PRE-EXP=4.1664245E-09 ACT-ENERGY=1.5346E+008  &
         ACT-VOLUME=0.0 REF-TEMP=60 EFFIC=0.4 NRADS=2
     CHAIN-INI E2 PRE-EXP=226920038.8 ACT-ENERGY=3.5300E+07  &
         ACT-VOLUME=0.0
     PROPAGATION E2 E2 PRE-EXP=215365330.94  &
         ACT-ENERGY=3.5300E+07 ACT-VOLUME=-.02130
     CHAT-MON E2 E2 PRE-EXP=1067905.0665 ACT-ENERGY=4.5400E+07  &
         ACT-VOLUME=0.0
     CHAT-POL E2 E2 PRE-EXP=1449088.2085 ACT-ENERGY=3.0400E+07  &
         ACT-VOLUME=.00160
     B-SCISSION E2 PRE-EXP=68017032.525 ACT-ENERGY=4.5300E+07  &
         ACT-VOLUME=0.0
     TERM-DIS E2 E2 PRE-EXP=2866738549. ACT-ENERGY=4190000.0  &
         ACT-VOLUME=.0010
     TERM-COMB E2 E2 PRE-EXP=2410596525. ACT-ENERGY=4190000.0  &
         ACT-VOLUME=.0010
     SC-BRANCH E2 E2 PRE-EXP=1396298852.5 ACT-ENERGY=4.1600E+07  &
         ACT-VOLUME=0.0

 PDF updated                                                                      TIME =      4.37
 THIS COPY OF ASPEN PLUS LICENSED TO                                 

      INFORMATION WHILE CHECKING INPUT SPECIFICATIONS                           
      BLOCK NAME: PFR1    MODEL NAME: RPLUG                    (ZURE04.23)      
      RPLUG WILL CALCULATE THE THERMAL AND PHASE STATE                          
      FOR THE INLET COOLANT STREAM                                              

      INFORMATION WHILE CHECKING INPUT SPECIFICATIONS                           
      BLOCK NAME: PFR2    MODEL NAME: RPLUG                    (ZURE04.23)      
      RPLUG WILL CALCULATE THE THERMAL AND PHASE STATE                          
      FOR THE INLET COOLANT STREAM                                              

      INFORMATION WHILE CHECKING INPUT SPECIFICATIONS                           
      BLOCK NAME: PFR3    MODEL NAME: RPLUG                    (ZURE04.23)      
      RPLUG WILL CALCULATE THE THERMAL AND PHASE STATE                          
      FOR THE INLET COOLANT STREAM                                              

      INFORMATION WHILE CHECKING INPUT SPECIFICATIONS                           
      BLOCK NAME: PFR4    MODEL NAME: RPLUG                    (ZURE04.23)      
      RPLUG WILL CALCULATE THE THERMAL AND PHASE STATE                          
      FOR THE INLET COOLANT STREAM                                              
 
 


Calculations begin                                                              time      4.42


      UOS BLOCK PFR1     MODEL: RPLUG                                             TIME =      4.42
        AT REACTOR EXIT :
        LENGTH =   250.00      DIAMETER =  0.59000E-01  RESIDENCE TIME =   31.046    
        PROCESS STREAM T =    492.94     P =   0.19000E+09 H =   0.20415E+08 V =    0.0000    
        COOLANT STREAM T =    432.86     P =   0.10000E+08 H =  -0.67938E+09 V =    0.0000    
        MIN T =   413.757     AT Z/LENGTH =   0.00000     MAX T =   554.274     AT Z/LENGTH =  0.230332    

      UOS BLOCK PFR2     MODEL: RPLUG                                             TIME =      4.43
        AT REACTOR EXIT :
        LENGTH =   220.00      DIAMETER =  0.59000E-01  RESIDENCE TIME =   27.785    
        PROCESS STREAM T =    464.98     P =   0.18000E+09 H =   0.19622E+08 V =    0.0000    
        COOLANT STREAM T =    438.85     P =   0.10000E+08 H =  -0.67846E+09 V =    0.0000    
        MIN T =   464.979     AT Z/LENGTH =   1.00000     MAX T =   492.944     AT Z/LENGTH =   0.00000    

      UOS BLOCK FDMIX2   MODEL: MIXER                                             TIME =      4.43
      KODE = 1   NO. TEMP ITER =    4     TEMP =  411.641    
      KPHASE =    2 KODE =    1 T =  411.641     P = 1.900000E+08 Q =  0.00000    

      UOS BLOCK PFR3     MODEL: RPLUG                                             TIME =      4.43
        AT REACTOR EXIT :
        LENGTH =   250.00      DIAMETER =  0.59000E-01  RESIDENCE TIME =   19.197    
        PROCESS STREAM T =    521.33     P =   0.18000E+09 H =   0.30654E+08 V =    0.0000    
        COOLANT STREAM T =    433.90     P =   0.10000E+08 H =  -0.67926E+09 V =    0.0000    
        MIN T =   411.641     AT Z/LENGTH =   0.00000     MAX T =   553.960     AT Z/LENGTH =  0.399981    

      UOS BLOCK PFR4     MODEL: RPLUG                                             TIME =      4.44
        AT REACTOR EXIT :
        LENGTH =   220.00      DIAMETER =  0.59000E-01  RESIDENCE TIME =   16.824    
        PROCESS STREAM T =    490.92     P =   0.17000E+09 H =   0.29250E+08 V =    0.0000    
        COOLANT STREAM T =    435.73     P =   0.10000E+08 H =  -0.67907E+09 V =    0.0000    
        MIN T =   490.924     AT Z/LENGTH =   1.00000     MAX T =   521.325     AT Z/LENGTH =   0.00000    

      UOS BLOCK HPS      MODEL: FLASH2                                            TIME =      4.45
      KODE = 1  NTRIAL =   4  T = 514.2610  P = 2.500000E+07  V = 0.841354      Q =  0.00000    

      UOS BLOCK LPS      MODEL: FLASH2                                            TIME =      4.45
      KODE = 1  NTRIAL =   2  T = 515.6205  P =  100000.      V = 0.107262      Q =  0.00000    

 Report Writer entered                                                            Time =      4.45

 Results generated                                                                Time =      4.65


*** INPUT SPECIFICATION MESSAGES ***

 BLOCK        PFR1     IS GENERATED BECAUSE OF OTHER CHANGES 05/16/2025   19:18:54:09 
 BLOCK PFR1 RPLUG
     SUBROUTINE QTRANS=USRHPE
     USER-VECS NREALQ=2
     REALQ VALUE-LIST=40. 100.
     PARAM TYPE=COUNTER-COOL LENGTH=250.0 DIAM=.0590 NPHASE=1  &
         PHASE=L PDROP=100. <BAR> NPOINT=40 INT-TOL=1E-005  &
         CORR-METHOD=DIRECT ERR-METHOD=STATIC
     COOLANT PDROP=4. <BAR> NPHASE=1 PHASE=L TEMP=170.0
     PROPERTIES POLYSL FREE-WATER=STEAM-TA SOLU-WATER=3  &
         TRUE-COMPS=YES / STEAM-TA FREE-WATER=STEAM-TA  &
         SOLU-WATER=3 TRUE-COMPS=YES
     REACTIONS RXN-IDS=R1

 BLOCK        PFR2     IS GENERATED BECAUSE OF OTHER CHANGES 05/16/2025   19:18:54:09 
 BLOCK PFR2 RPLUG
     SUBROUTINE QTRANS=USRHPE
     USER-VECS NREALQ=2
     REALQ VALUE-LIST=40. 100.
     PARAM TYPE=COUNTER-COOL LENGTH=220.0 DIAM=.0590 NPHASE=1  &
         PHASE=L PDROP=100. <BAR> NPOINT=20 INT-TOL=1E-005  &
         CORR-METHOD=DIRECT ERR-METHOD=STATIC
     COOLANT PDROP=4. <BAR> NPHASE=1 PHASE=L TEMP=170.0
     PROPERTIES POLYSL FREE-WATER=STEAM-TA SOLU-WATER=3  &
         TRUE-COMPS=YES / STEAM-TA FREE-WATER=STEAM-TA  &
         SOLU-WATER=3 TRUE-COMPS=YES
     REACTIONS RXN-IDS=R1

 BLOCK        PFR3     IS GENERATED BECAUSE OF OTHER CHANGES 05/16/2025   19:18:54:09 
 BLOCK PFR3 RPLUG
     SUBROUTINE QTRANS=USRHPE
     USER-VECS NREALQ=2
     REALQ VALUE-LIST=40. 100.
     PARAM TYPE=COUNTER-COOL LENGTH=250.0 DIAM=.0590 NPHASE=1  &
         PHASE=L PDROP=100. <BAR> NPOINT=40 INT-TOL=1E-005  &
         CORR-METHOD=DIRECT ERR-METHOD=STATIC
     COOLANT PDROP=4. <BAR> NPHASE=1 PHASE=L TEMP=170.0
     PROPERTIES POLYSL FREE-WATER=STEAM-TA SOLU-WATER=3  &
         TRUE-COMPS=YES / STEAM-TA FREE-WATER=STEAM-TA  &
         SOLU-WATER=3 TRUE-COMPS=YES
     REACTIONS RXN-IDS=R1

 BLOCK        PFR4     IS GENERATED BECAUSE OF OTHER CHANGES 05/16/2025   19:18:54:09 
 BLOCK PFR4 RPLUG
     SUBROUTINE QTRANS=USRHPE
     USER-VECS NREALQ=2
     REALQ VALUE-LIST=40. 100.
     PARAM TYPE=COUNTER-COOL LENGTH=220.0 DIAM=.0590 NPHASE=1  &
         PHASE=L PDROP=100. <BAR> NPOINT=20 INT-TOL=1E-005  &
         CORR-METHOD=DIRECT ERR-METHOD=STATIC
     COOLANT PDROP=4. <BAR> NPHASE=1 PHASE=L TEMP=170.0
     PROPERTIES POLYSL FREE-WATER=STEAM-TA SOLU-WATER=3  &
         TRUE-COMPS=YES / STEAM-TA FREE-WATER=STEAM-TA  &
         SOLU-WATER=3 TRUE-COMPS=YES
     REACTIONS RXN-IDS=R1

 CHANGES WERE MADE TO REACTIONS    R1       05/16/2025   19:18:54:09 
 REACTIONS R1 FREE-RAD
     DESCRIPTION 'Free-Radical Kinetic Scheme'
     PARAM QSSA=YES
     SPECIES INITIATOR=INI1 INI2 MONOMER=E2 POLYMER=LDPE
     MON-RSEG E2 E2-SEG
     INIT-DEC INI1 PRE-EXP=3.8607E-006 ACT-ENERGY=1.2721E+008  &
         ACT-VOLUME=0.0 REF-TEMP=60 EFFIC=0.4 NRADS=2
     INIT-DEC INI2 PRE-EXP=3.6458554E-09 ACT-ENERGY=1.5346E+008  &
         ACT-VOLUME=0.0 REF-TEMP=60 EFFIC=0.4 NRADS=2
     CHAIN-INI E2 PRE-EXP=231184905.5 ACT-ENERGY=3.5300E+07  &
         ACT-VOLUME=0.0
     PROPAGATION E2 E2 PRE-EXP=256374248.76  &
         ACT-ENERGY=3.5300E+07 ACT-VOLUME=-.02130
     CHAT-MON E2 E2 PRE-EXP=1482167.5642 ACT-ENERGY=4.5400E+07  &
         ACT-VOLUME=0.0
     CHAT-POL E2 E2 PRE-EXP=1060631.7626 ACT-ENERGY=3.0400E+07  &
         ACT-VOLUME=.00160
     B-SCISSION E2 PRE-EXP=53751762.523 ACT-ENERGY=4.5300E+07  &
         ACT-VOLUME=0.0
     TERM-DIS E2 E2 PRE-EXP=2570451594. ACT-ENERGY=4190000.0  &
         ACT-VOLUME=.0010
     TERM-COMB E2 E2 PRE-EXP=2766277344. ACT-ENERGY=4190000.0  &
         ACT-VOLUME=.0010
     SC-BRANCH E2 E2 PRE-EXP=1554590753. ACT-ENERGY=4.1600E+07  &
         ACT-VOLUME=0.0

 PDF updated                                                                      TIME =      5.21
 THIS COPY OF ASPEN PLUS LICENSED TO                                 

      INFORMATION WHILE CHECKING INPUT SPECIFICATIONS                           
      BLOCK NAME: PFR1    MODEL NAME: RPLUG                    (ZURE04.23)      
      RPLUG WILL CALCULATE THE THERMAL AND PHASE STATE                          
      FOR THE INLET COOLANT STREAM                                              

      INFORMATION WHILE CHECKING INPUT SPECIFICATIONS                           
      BLOCK NAME: PFR2    MODEL NAME: RPLUG                    (ZURE04.23)      
      RPLUG WILL CALCULATE THE THERMAL AND PHASE STATE                          
      FOR THE INLET COOLANT STREAM                                              

      INFORMATION WHILE CHECKING INPUT SPECIFICATIONS                           
      BLOCK NAME: PFR3    MODEL NAME: RPLUG                    (ZURE04.23)      
      RPLUG WILL CALCULATE THE THERMAL AND PHASE STATE                          
      FOR THE INLET COOLANT STREAM                                              

      INFORMATION WHILE CHECKING INPUT SPECIFICATIONS                           
      BLOCK NAME: PFR4    MODEL NAME: RPLUG                    (ZURE04.23)      
      RPLUG WILL CALCULATE THE THERMAL AND PHASE STATE                          
      FOR THE INLET COOLANT STREAM                                              
 
 


Calculations begin                                                              time      5.27


      UOS BLOCK PFR1     MODEL: RPLUG                                             TIME =      5.27
        AT REACTOR EXIT :
        LENGTH =   250.00      DIAMETER =  0.59000E-01  RESIDENCE TIME =   30.939    
        PROCESS STREAM T =    496.05     P =   0.19000E+09 H =   0.20239E+08 V =    0.0000    
        COOLANT STREAM T =    433.16     P =   0.10000E+08 H =  -0.67956E+09 V =    0.0000    
        MIN T =   413.757     AT Z/LENGTH =   0.00000     MAX T =   565.274     AT Z/LENGTH =  0.182927    

      UOS BLOCK PFR2     MODEL: RPLUG                                             TIME =      5.29
        AT REACTOR EXIT :
        LENGTH =   220.00      DIAMETER =  0.59000E-01  RESIDENCE TIME =   27.792    
        PROCESS STREAM T =    466.74     P =   0.18000E+09 H =   0.19413E+08 V =    0.0000    
        COOLANT STREAM T =    438.70     P =   0.10000E+08 H =  -0.67849E+09 V =    0.0000    
        MIN T =   466.735     AT Z/LENGTH =   1.00000     MAX T =   496.046     AT Z/LENGTH =   0.00000    

      UOS BLOCK FDMIX2   MODEL: MIXER                                             TIME =      5.29
      KODE = 1   NO. TEMP ITER =    4     TEMP =  412.755    
      KPHASE =    2 KODE =    1 T =  412.755     P = 1.900000E+08 Q =  0.00000    

      UOS BLOCK PFR3     MODEL: RPLUG                                             TIME =      5.29
        AT REACTOR EXIT :
        LENGTH =   250.00      DIAMETER =  0.59000E-01  RESIDENCE TIME =   19.106    
        PROCESS STREAM T =    525.22     P =   0.18000E+09 H =   0.30171E+08 V =    0.0000    
        COOLANT STREAM T =    432.43     P =   0.10000E+08 H =  -0.67954E+09 V =    0.0000    
        MIN T =   412.755     AT Z/LENGTH =   0.00000     MAX T =   564.968     AT Z/LENGTH =  0.309261    

      UOS BLOCK PFR4     MODEL: RPLUG                                             TIME =      5.30
        AT REACTOR EXIT :
        LENGTH =   220.00      DIAMETER =  0.59000E-01  RESIDENCE TIME =   16.840    
        PROCESS STREAM T =    494.04     P =   0.17000E+09 H =   0.28733E+08 V =    0.0000    
        COOLANT STREAM T =    435.57     P =   0.10000E+08 H =  -0.67910E+09 V =    0.0000    
        MIN T =   494.043     AT Z/LENGTH =   1.00000     MAX T =   525.215     AT Z/LENGTH =   0.00000    

      UOS BLOCK HPS      MODEL: FLASH2                                            TIME =      5.31
      KODE = 1  NTRIAL =   4  T = 517.7584  P = 2.500000E+07  V = 0.830238      Q =  0.00000    

      UOS BLOCK LPS      MODEL: FLASH2                                            TIME =      5.31
      KODE = 1  NTRIAL =   2  T = 519.2281  P =  100000.      V = 0.106625      Q =  0.00000    

 Report Writer entered                                                            Time =      5.32

 Results generated                                                                Time =      5.58


*** INPUT SPECIFICATION MESSAGES ***

 BLOCK        PFR1     IS GENERATED BECAUSE OF OTHER CHANGES 05/16/2025   19:18:54:99 
 BLOCK PFR1 RPLUG
     SUBROUTINE QTRANS=USRHPE
     USER-VECS NREALQ=2
     REALQ VALUE-LIST=40. 100.
     PARAM TYPE=COUNTER-COOL LENGTH=250.0 DIAM=.0590 NPHASE=1  &
         PHASE=L PDROP=100. <BAR> NPOINT=40 INT-TOL=1E-005  &
         CORR-METHOD=DIRECT ERR-METHOD=STATIC
     COOLANT PDROP=4. <BAR> NPHASE=1 PHASE=L TEMP=170.0
     PROPERTIES POLYSL FREE-WATER=STEAM-TA SOLU-WATER=3  &
         TRUE-COMPS=YES / STEAM-TA FREE-WATER=STEAM-TA  &
         SOLU-WATER=3 TRUE-COMPS=YES
     REACTIONS RXN-IDS=R1

 BLOCK        PFR2     IS GENERATED BECAUSE OF OTHER CHANGES 05/16/2025   19:18:54:99 
 BLOCK PFR2 RPLUG
     SUBROUTINE QTRANS=USRHPE
     USER-VECS NREALQ=2
     REALQ VALUE-LIST=40. 100.
     PARAM TYPE=COUNTER-COOL LENGTH=220.0 DIAM=.0590 NPHASE=1  &
         PHASE=L PDROP=100. <BAR> NPOINT=20 INT-TOL=1E-005  &
         CORR-METHOD=DIRECT ERR-METHOD=STATIC
     COOLANT PDROP=4. <BAR> NPHASE=1 PHASE=L TEMP=170.0
     PROPERTIES POLYSL FREE-WATER=STEAM-TA SOLU-WATER=3  &
         TRUE-COMPS=YES / STEAM-TA FREE-WATER=STEAM-TA  &
         SOLU-WATER=3 TRUE-COMPS=YES
     REACTIONS RXN-IDS=R1

 BLOCK        PFR3     IS GENERATED BECAUSE OF OTHER CHANGES 05/16/2025   19:18:54:99 
 BLOCK PFR3 RPLUG
     SUBROUTINE QTRANS=USRHPE
     USER-VECS NREALQ=2
     REALQ VALUE-LIST=40. 100.
     PARAM TYPE=COUNTER-COOL LENGTH=250.0 DIAM=.0590 NPHASE=1  &
         PHASE=L PDROP=100. <BAR> NPOINT=40 INT-TOL=1E-005  &
         CORR-METHOD=DIRECT ERR-METHOD=STATIC
     COOLANT PDROP=4. <BAR> NPHASE=1 PHASE=L TEMP=170.0
     PROPERTIES POLYSL FREE-WATER=STEAM-TA SOLU-WATER=3  &
         TRUE-COMPS=YES / STEAM-TA FREE-WATER=STEAM-TA  &
         SOLU-WATER=3 TRUE-COMPS=YES
     REACTIONS RXN-IDS=R1

 BLOCK        PFR4     IS GENERATED BECAUSE OF OTHER CHANGES 05/16/2025   19:18:54:99 
 BLOCK PFR4 RPLUG
     SUBROUTINE QTRANS=USRHPE
     USER-VECS NREALQ=2
     REALQ VALUE-LIST=40. 100.
     PARAM TYPE=COUNTER-COOL LENGTH=220.0 DIAM=.0590 NPHASE=1  &
         PHASE=L PDROP=100. <BAR> NPOINT=20 INT-TOL=1E-005  &
         CORR-METHOD=DIRECT ERR-METHOD=STATIC
     COOLANT PDROP=4. <BAR> NPHASE=1 PHASE=L TEMP=170.0
     PROPERTIES POLYSL FREE-WATER=STEAM-TA SOLU-WATER=3  &
         TRUE-COMPS=YES / STEAM-TA FREE-WATER=STEAM-TA  &
         SOLU-WATER=3 TRUE-COMPS=YES
     REACTIONS RXN-IDS=R1

 CHANGES WERE MADE TO REACTIONS    R1       05/16/2025   19:18:54:99 
 REACTIONS R1 FREE-RAD
     DESCRIPTION 'Free-Radical Kinetic Scheme'
     PARAM QSSA=YES
     SPECIES INITIATOR=INI1 INI2 MONOMER=E2 POLYMER=LDPE
     MON-RSEG E2 E2-SEG
     INIT-DEC INI1 PRE-EXP=3.8607E-006 ACT-ENERGY=1.2721E+008  &
         ACT-VOLUME=0.0 REF-TEMP=60 EFFIC=0.4 NRADS=2
     INIT-DEC INI2 PRE-EXP=4.4191226E-09 ACT-ENERGY=1.5346E+008  &
         ACT-VOLUME=0.0 REF-TEMP=60 EFFIC=0.4 NRADS=2
     CHAIN-INI E2 PRE-EXP=249383502.26 ACT-ENERGY=3.5300E+07  &
         ACT-VOLUME=0.0
     PROPAGATION E2 E2 PRE-EXP=226632943.62  &
         ACT-ENERGY=3.5300E+07 ACT-VOLUME=-.02130
     CHAT-MON E2 E2 PRE-EXP=1174561.6106 ACT-ENERGY=4.5400E+07  &
         ACT-VOLUME=0.0
     CHAT-POL E2 E2 PRE-EXP=1328769.9458 ACT-ENERGY=3.0400E+07  &
         ACT-VOLUME=.00160
     B-SCISSION E2 PRE-EXP=72789973.757 ACT-ENERGY=4.5300E+07  &
         ACT-VOLUME=0.0
     TERM-DIS E2 E2 PRE-EXP=2781442273. ACT-ENERGY=4190000.0  &
         ACT-VOLUME=.0010
     TERM-COMB E2 E2 PRE-EXP=2327217011. ACT-ENERGY=4190000.0  &
         ACT-VOLUME=.0010
     SC-BRANCH E2 E2 PRE-EXP=1093933423.6 ACT-ENERGY=4.1600E+07  &
         ACT-VOLUME=0.0

 PDF updated                                                                      TIME =      5.99
 THIS COPY OF ASPEN PLUS LICENSED TO                                 

      INFORMATION WHILE CHECKING INPUT SPECIFICATIONS                           
      BLOCK NAME: PFR1    MODEL NAME: RPLUG                    (ZURE04.23)      
      RPLUG WILL CALCULATE THE THERMAL AND PHASE STATE                          
      FOR THE INLET COOLANT STREAM                                              

      INFORMATION WHILE CHECKING INPUT SPECIFICATIONS                           
      BLOCK NAME: PFR2    MODEL NAME: RPLUG                    (ZURE04.23)      
      RPLUG WILL CALCULATE THE THERMAL AND PHASE STATE                          
      FOR THE INLET COOLANT STREAM                                              

      INFORMATION WHILE CHECKING INPUT SPECIFICATIONS                           
      BLOCK NAME: PFR3    MODEL NAME: RPLUG                    (ZURE04.23)      
      RPLUG WILL CALCULATE THE THERMAL AND PHASE STATE                          
      FOR THE INLET COOLANT STREAM                                              

      INFORMATION WHILE CHECKING INPUT SPECIFICATIONS                           
      BLOCK NAME: PFR4    MODEL NAME: RPLUG                    (ZURE04.23)      
      RPLUG WILL CALCULATE THE THERMAL AND PHASE STATE                          
      FOR THE INLET COOLANT STREAM                                              
 
 


Calculations begin                                                              time      6.03


      UOS BLOCK PFR1     MODEL: RPLUG                                             TIME =      6.03
        AT REACTOR EXIT :
        LENGTH =   250.00      DIAMETER =  0.59000E-01  RESIDENCE TIME =   31.026    
        PROCESS STREAM T =    492.71     P =   0.19000E+09 H =   0.20368E+08 V =    0.0000    
        COOLANT STREAM T =    433.36     P =   0.10000E+08 H =  -0.67943E+09 V =    0.0000    
        MIN T =   413.757     AT Z/LENGTH =   0.00000     MAX T =   556.528     AT Z/LENGTH =  0.207426    

      UOS BLOCK PFR2     MODEL: RPLUG                                             TIME =      6.04
        AT REACTOR EXIT :
        LENGTH =   220.00      DIAMETER =  0.59000E-01  RESIDENCE TIME =   27.798    
        PROCESS STREAM T =    464.91     P =   0.18000E+09 H =   0.19579E+08 V =    0.0000    
        COOLANT STREAM T =    438.86     P =   0.10000E+08 H =  -0.67846E+09 V =    0.0000    
        MIN T =   464.914     AT Z/LENGTH =   1.00000     MAX T =   492.713     AT Z/LENGTH =   0.00000    

      UOS BLOCK FDMIX2   MODEL: MIXER                                             TIME =      6.04
      KODE = 1   NO. TEMP ITER =    4     TEMP =  411.595    
      KPHASE =    2 KODE =    1 T =  411.595     P = 1.900000E+08 Q =  0.00000    

      UOS BLOCK PFR3     MODEL: RPLUG                                             TIME =      6.04
        AT REACTOR EXIT :
        LENGTH =   250.00      DIAMETER =  0.59000E-01  RESIDENCE TIME =   19.173    
        PROCESS STREAM T =    521.14     P =   0.18000E+09 H =   0.30532E+08 V =    0.0000    
        COOLANT STREAM T =    433.61     P =   0.10000E+08 H =  -0.67934E+09 V =    0.0000    
        MIN T =   411.595     AT Z/LENGTH =   0.00000     MAX T =   556.254     AT Z/LENGTH =  0.362476    

      UOS BLOCK PFR4     MODEL: RPLUG                                             TIME =      6.06
        AT REACTOR EXIT :
        LENGTH =   220.00      DIAMETER =  0.59000E-01  RESIDENCE TIME =   16.838    
        PROCESS STREAM T =    490.87     P =   0.17000E+09 H =   0.29133E+08 V =    0.0000    
        COOLANT STREAM T =    435.73     P =   0.10000E+08 H =  -0.67907E+09 V =    0.0000    
        MIN T =   490.872     AT Z/LENGTH =   1.00000     MAX T =   521.144     AT Z/LENGTH =   0.00000    

      UOS BLOCK HPS      MODEL: FLASH2                                            TIME =      6.06
      KODE = 1  NTRIAL =   4  T = 514.3193  P = 2.500000E+07  V = 0.839337      Q =  0.00000    

      UOS BLOCK LPS      MODEL: FLASH2                                            TIME =      6.06
      KODE = 1  NTRIAL =   2  T = 515.6795  P =  100000.      V = 0.107265      Q =  0.00000    

 Report Writer entered                                                            Time =      6.06

 Results generated                                                                Time =      6.32


*** INPUT SPECIFICATION MESSAGES ***

 BLOCK        PFR1     IS GENERATED BECAUSE OF OTHER CHANGES 05/16/2025   19:18:55:99 
 BLOCK PFR1 RPLUG
     SUBROUTINE QTRANS=USRHPE
     USER-VECS NREALQ=2
     REALQ VALUE-LIST=40. 100.
     PARAM TYPE=COUNTER-COOL LENGTH=250.0 DIAM=.0590 NPHASE=1  &
         PHASE=L PDROP=100. <BAR> NPOINT=40 INT-TOL=1E-005  &
         CORR-METHOD=DIRECT ERR-METHOD=STATIC
     COOLANT PDROP=4. <BAR> NPHASE=1 PHASE=L TEMP=170.0
     PROPERTIES POLYSL FREE-WATER=STEAM-TA SOLU-WATER=3  &
         TRUE-COMPS=YES / STEAM-TA FREE-WATER=STEAM-TA  &
         SOLU-WATER=3 TRUE-COMPS=YES
     REACTIONS RXN-IDS=R1

 BLOCK        PFR2     IS GENERATED BECAUSE OF OTHER CHANGES 05/16/2025   19:18:55:99 
 BLOCK PFR2 RPLUG
     SUBROUTINE QTRANS=USRHPE
     USER-VECS NREALQ=2
     REALQ VALUE-LIST=40. 100.
     PARAM TYPE=COUNTER-COOL LENGTH=220.0 DIAM=.0590 NPHASE=1  &
         PHASE=L PDROP=100. <BAR> NPOINT=20 INT-TOL=1E-005  &
         CORR-METHOD=DIRECT ERR-METHOD=STATIC
     COOLANT PDROP=4. <BAR> NPHASE=1 PHASE=L TEMP=170.0
     PROPERTIES POLYSL FREE-WATER=STEAM-TA SOLU-WATER=3  &
         TRUE-COMPS=YES / STEAM-TA FREE-WATER=STEAM-TA  &
         SOLU-WATER=3 TRUE-COMPS=YES
     REACTIONS RXN-IDS=R1

 BLOCK        PFR3     IS GENERATED BECAUSE OF OTHER CHANGES 05/16/2025   19:18:55:99 
 BLOCK PFR3 RPLUG
     SUBROUTINE QTRANS=USRHPE
     USER-VECS NREALQ=2
     REALQ VALUE-LIST=40. 100.
     PARAM TYPE=COUNTER-COOL LENGTH=250.0 DIAM=.0590 NPHASE=1  &
         PHASE=L PDROP=100. <BAR> NPOINT=40 INT-TOL=1E-005  &
         CORR-METHOD=DIRECT ERR-METHOD=STATIC
     COOLANT PDROP=4. <BAR> NPHASE=1 PHASE=L TEMP=170.0
     PROPERTIES POLYSL FREE-WATER=STEAM-TA SOLU-WATER=3  &
         TRUE-COMPS=YES / STEAM-TA FREE-WATER=STEAM-TA  &
         SOLU-WATER=3 TRUE-COMPS=YES
     REACTIONS RXN-IDS=R1

 BLOCK        PFR4     IS GENERATED BECAUSE OF OTHER CHANGES 05/16/2025   19:18:55:99 
 BLOCK PFR4 RPLUG
     SUBROUTINE QTRANS=USRHPE
     USER-VECS NREALQ=2
     REALQ VALUE-LIST=40. 100.
     PARAM TYPE=COUNTER-COOL LENGTH=220.0 DIAM=.0590 NPHASE=1  &
         PHASE=L PDROP=100. <BAR> NPOINT=20 INT-TOL=1E-005  &
         CORR-METHOD=DIRECT ERR-METHOD=STATIC
     COOLANT PDROP=4. <BAR> NPHASE=1 PHASE=L TEMP=170.0
     PROPERTIES POLYSL FREE-WATER=STEAM-TA SOLU-WATER=3  &
         TRUE-COMPS=YES / STEAM-TA FREE-WATER=STEAM-TA  &
         SOLU-WATER=3 TRUE-COMPS=YES
     REACTIONS RXN-IDS=R1

 CHANGES WERE MADE TO REACTIONS    R1       05/16/2025   19:18:55:99 
 REACTIONS R1 FREE-RAD
     DESCRIPTION 'Free-Radical Kinetic Scheme'
     PARAM QSSA=YES
     SPECIES INITIATOR=INI1 INI2 MONOMER=E2 POLYMER=LDPE
     MON-RSEG E2 E2-SEG
     INIT-DEC INI1 PRE-EXP=3.8607E-006 ACT-ENERGY=1.2721E+008  &
         ACT-VOLUME=0.0 REF-TEMP=60 EFFIC=0.4 NRADS=2
     INIT-DEC INI2 PRE-EXP=4.0206350E-09 ACT-ENERGY=1.5346E+008  &
         ACT-VOLUME=0.0 REF-TEMP=60 EFFIC=0.4 NRADS=2
     CHAIN-INI E2 PRE-EXP=234474924.15 ACT-ENERGY=3.5300E+07  &
         ACT-VOLUME=0.0
     PROPAGATION E2 E2 PRE-EXP=252004382. ACT-ENERGY=3.5300E+07  &
         ACT-VOLUME=-.02130
     CHAT-MON E2 E2 PRE-EXP=1229531.8567 ACT-ENERGY=4.5400E+07  &
         ACT-VOLUME=0.0
     CHAT-POL E2 E2 PRE-EXP=1248908.2372 ACT-ENERGY=3.0400E+07  &
         ACT-VOLUME=.00160
     B-SCISSION E2 PRE-EXP=52595803.994 ACT-ENERGY=4.5300E+07  &
         ACT-VOLUME=0.0
     TERM-DIS E2 E2 PRE-EXP=2007941512.9 ACT-ENERGY=4190000.0  &
         ACT-VOLUME=.0010
     TERM-COMB E2 E2 PRE-EXP=2183111758. ACT-ENERGY=4190000.0  &
         ACT-VOLUME=.0010
     SC-BRANCH E2 E2 PRE-EXP=1219212839.7 ACT-ENERGY=4.1600E+07  &
         ACT-VOLUME=0.0

 PDF updated                                                                      TIME =      6.74
 THIS COPY OF ASPEN PLUS LICENSED TO                                 

      INFORMATION WHILE CHECKING INPUT SPECIFICATIONS                           
      BLOCK NAME: PFR1    MODEL NAME: RPLUG                    (ZURE04.23)      
      RPLUG WILL CALCULATE THE THERMAL AND PHASE STATE                          
      FOR THE INLET COOLANT STREAM                                              

      INFORMATION WHILE CHECKING INPUT SPECIFICATIONS                           
      BLOCK NAME: PFR2    MODEL NAME: RPLUG                    (ZURE04.23)      
      RPLUG WILL CALCULATE THE THERMAL AND PHASE STATE                          
      FOR THE INLET COOLANT STREAM                                              

      INFORMATION WHILE CHECKING INPUT SPECIFICATIONS                           
      BLOCK NAME: PFR3    MODEL NAME: RPLUG                    (ZURE04.23)      
      RPLUG WILL CALCULATE THE THERMAL AND PHASE STATE                          
      FOR THE INLET COOLANT STREAM                                              

      INFORMATION WHILE CHECKING INPUT SPECIFICATIONS                           
      BLOCK NAME: PFR4    MODEL NAME: RPLUG                    (ZURE04.23)      
      RPLUG WILL CALCULATE THE THERMAL AND PHASE STATE                          
      FOR THE INLET COOLANT STREAM                                              
 
 


Calculations begin                                                              time      6.78


      UOS BLOCK PFR1     MODEL: RPLUG                                             TIME =      6.78
        AT REACTOR EXIT :
        LENGTH =   250.00      DIAMETER =  0.59000E-01  RESIDENCE TIME =   30.908    
        PROCESS STREAM T =    496.20     P =   0.19000E+09 H =   0.20178E+08 V =    0.0000    
        COOLANT STREAM T =    431.97     P =   0.10000E+08 H =  -0.67962E+09 V =    0.0000    
        MIN T =   413.757     AT Z/LENGTH =   0.00000     MAX T =   568.538     AT Z/LENGTH =  0.156998    

      UOS BLOCK PFR2     MODEL: RPLUG                                             TIME =      6.79
        AT REACTOR EXIT :
        LENGTH =   220.00      DIAMETER =  0.59000E-01  RESIDENCE TIME =   27.804    
        PROCESS STREAM T =    466.95     P =   0.18000E+09 H =   0.19353E+08 V =    0.0000    
        COOLANT STREAM T =    438.70     P =   0.10000E+08 H =  -0.67849E+09 V =    0.0000    
        MIN T =   466.945     AT Z/LENGTH =   1.00000     MAX T =   496.198     AT Z/LENGTH =   0.00000    

      UOS BLOCK FDMIX2   MODEL: MIXER                                             TIME =      6.79
      KODE = 1   NO. TEMP ITER =    4     TEMP =  412.884    
      KPHASE =    2 KODE =    1 T =  412.884     P = 1.900000E+08 Q =  0.00000    

      UOS BLOCK PFR3     MODEL: RPLUG                                             TIME =      6.79
        AT REACTOR EXIT :
        LENGTH =   250.00      DIAMETER =  0.59000E-01  RESIDENCE TIME =   19.074    
        PROCESS STREAM T =    525.33     P =   0.18000E+09 H =   0.30011E+08 V =    0.0000    
        COOLANT STREAM T =    432.30     P =   0.10000E+08 H =  -0.67964E+09 V =    0.0000    
        MIN T =   412.884     AT Z/LENGTH =   0.00000     MAX T =   568.122     AT Z/LENGTH =  0.265371    

      UOS BLOCK PFR4     MODEL: RPLUG                                             TIME =      6.80
        AT REACTOR EXIT :
        LENGTH =   220.00      DIAMETER =  0.59000E-01  RESIDENCE TIME =   16.854    
        PROCESS STREAM T =    494.34     P =   0.17000E+09 H =   0.28581E+08 V =    0.0000    
        COOLANT STREAM T =    435.57     P =   0.10000E+08 H =  -0.67910E+09 V =    0.0000    
        MIN T =   494.337     AT Z/LENGTH =   1.00000     MAX T =   525.328     AT Z/LENGTH =   0.00000    

      UOS BLOCK HPS      MODEL: FLASH2                                            TIME =      6.81
      KODE = 1  NTRIAL =   4  T = 518.1867  P = 2.500000E+07  V = 0.827366      Q =  0.00000    

      UOS BLOCK LPS      MODEL: FLASH2                                            TIME =      6.81
      KODE = 1  NTRIAL =   2  T = 519.6700  P =  100000.      V = 0.106545      Q =  0.00000    

 Report Writer entered                                                            Time =      6.82

 Results generated                                                                Time =      7.05


*** INPUT SPECIFICATION MESSAGES ***

 BLOCK        PFR1     IS GENERATED BECAUSE OF OTHER CHANGES 05/16/2025   19:18:56:99 
 BLOCK PFR1 RPLUG
     SUBROUTINE QTRANS=USRHPE
     USER-VECS NREALQ=2
     REALQ VALUE-LIST=40. 100.
     PARAM TYPE=COUNTER-COOL LENGTH=250.0 DIAM=.0590 NPHASE=1  &
         PHASE=L PDROP=100. <BAR> NPOINT=40 INT-TOL=1E-005  &
         CORR-METHOD=DIRECT ERR-METHOD=STATIC
     COOLANT PDROP=4. <BAR> NPHASE=1 PHASE=L TEMP=170.0
     PROPERTIES POLYSL FREE-WATER=STEAM-TA SOLU-WATER=3  &
         TRUE-COMPS=YES / STEAM-TA FREE-WATER=STEAM-TA  &
         SOLU-WATER=3 TRUE-COMPS=YES
     REACTIONS RXN-IDS=R1

 BLOCK        PFR2     IS GENERATED BECAUSE OF OTHER CHANGES 05/16/2025   19:18:56:99 
 BLOCK PFR2 RPLUG
     SUBROUTINE QTRANS=USRHPE
     USER-VECS NREALQ=2
     REALQ VALUE-LIST=40. 100.
     PARAM TYPE=COUNTER-COOL LENGTH=220.0 DIAM=.0590 NPHASE=1  &
         PHASE=L PDROP=100. <BAR> NPOINT=20 INT-TOL=1E-005  &
         CORR-METHOD=DIRECT ERR-METHOD=STATIC
     COOLANT PDROP=4. <BAR> NPHASE=1 PHASE=L TEMP=170.0
     PROPERTIES POLYSL FREE-WATER=STEAM-TA SOLU-WATER=3  &
         TRUE-COMPS=YES / STEAM-TA FREE-WATER=STEAM-TA  &
         SOLU-WATER=3 TRUE-COMPS=YES
     REACTIONS RXN-IDS=R1

 BLOCK        PFR3     IS GENERATED BECAUSE OF OTHER CHANGES 05/16/2025   19:18:56:99 
 BLOCK PFR3 RPLUG
     SUBROUTINE QTRANS=USRHPE
     USER-VECS NREALQ=2
     REALQ VALUE-LIST=40. 100.
     PARAM TYPE=COUNTER-COOL LENGTH=250.0 DIAM=.0590 NPHASE=1  &
         PHASE=L PDROP=100. <BAR> NPOINT=40 INT-TOL=1E-005  &
         CORR-METHOD=DIRECT ERR-METHOD=STATIC
     COOLANT PDROP=4. <BAR> NPHASE=1 PHASE=L TEMP=170.0
     PROPERTIES POLYSL FREE-WATER=STEAM-TA SOLU-WATER=3  &
         TRUE-COMPS=YES / STEAM-TA FREE-WATER=STEAM-TA  &
         SOLU-WATER=3 TRUE-COMPS=YES
     REACTIONS RXN-IDS=R1

 BLOCK        PFR4     IS GENERATED BECAUSE OF OTHER CHANGES 05/16/2025   19:18:56:99 
 BLOCK PFR4 RPLUG
     SUBROUTINE QTRANS=USRHPE
     USER-VECS NREALQ=2
     REALQ VALUE-LIST=40. 100.
     PARAM TYPE=COUNTER-COOL LENGTH=220.0 DIAM=.0590 NPHASE=1  &
         PHASE=L PDROP=100. <BAR> NPOINT=20 INT-TOL=1E-005  &
         CORR-METHOD=DIRECT ERR-METHOD=STATIC
     COOLANT PDROP=4. <BAR> NPHASE=1 PHASE=L TEMP=170.0
     PROPERTIES POLYSL FREE-WATER=STEAM-TA SOLU-WATER=3  &
         TRUE-COMPS=YES / STEAM-TA FREE-WATER=STEAM-TA  &
         SOLU-WATER=3 TRUE-COMPS=YES
     REACTIONS RXN-IDS=R1

 CHANGES WERE MADE TO REACTIONS    R1       05/16/2025   19:18:56:99 
 REACTIONS R1 FREE-RAD
     DESCRIPTION 'Free-Radical Kinetic Scheme'
     PARAM QSSA=YES
     SPECIES INITIATOR=INI1 INI2 MONOMER=E2 POLYMER=LDPE
     MON-RSEG E2 E2-SEG
     INIT-DEC INI1 PRE-EXP=3.8607E-006 ACT-ENERGY=1.2721E+008  &
         ACT-VOLUME=0.0 REF-TEMP=60 EFFIC=0.4 NRADS=2
     INIT-DEC INI2 PRE-EXP=3.2993683E-09 ACT-ENERGY=1.5346E+008  &
         ACT-VOLUME=0.0 REF-TEMP=60 EFFIC=0.4 NRADS=2
     CHAIN-INI E2 PRE-EXP=232261166.94 ACT-ENERGY=3.5300E+07  &
         ACT-VOLUME=0.0
     PROPAGATION E2 E2 PRE-EXP=269113096.77  &
         ACT-ENERGY=3.5300E+07 ACT-VOLUME=-.02130
     CHAT-MON E2 E2 PRE-EXP=1348646.885 ACT-ENERGY=4.5400E+07  &
         ACT-VOLUME=0.0
     CHAT-POL E2 E2 PRE-EXP=1153618.2208 ACT-ENERGY=3.0400E+07  &
         ACT-VOLUME=.00160
     B-SCISSION E2 PRE-EXP=71721201.135 ACT-ENERGY=4.5300E+07  &
         ACT-VOLUME=0.0
     TERM-DIS E2 E2 PRE-EXP=2222032511. ACT-ENERGY=4190000.0  &
         ACT-VOLUME=.0010
     TERM-COMB E2 E2 PRE-EXP=2164697336. ACT-ENERGY=4190000.0  &
         ACT-VOLUME=.0010
     SC-BRANCH E2 E2 PRE-EXP=1538090900.6 ACT-ENERGY=4.1600E+07  &
         ACT-VOLUME=0.0

 PDF updated                                                                      TIME =      7.59
 THIS COPY OF ASPEN PLUS LICENSED TO                                 

      INFORMATION WHILE CHECKING INPUT SPECIFICATIONS                           
      BLOCK NAME: PFR1    MODEL NAME: RPLUG                    (ZURE04.23)      
      RPLUG WILL CALCULATE THE THERMAL AND PHASE STATE                          
      FOR THE INLET COOLANT STREAM                                              

      INFORMATION WHILE CHECKING INPUT SPECIFICATIONS                           
      BLOCK NAME: PFR2    MODEL NAME: RPLUG                    (ZURE04.23)      
      RPLUG WILL CALCULATE THE THERMAL AND PHASE STATE                          
      FOR THE INLET COOLANT STREAM                                              

      INFORMATION WHILE CHECKING INPUT SPECIFICATIONS                           
      BLOCK NAME: PFR3    MODEL NAME: RPLUG                    (ZURE04.23)      
      RPLUG WILL CALCULATE THE THERMAL AND PHASE STATE                          
      FOR THE INLET COOLANT STREAM                                              

      INFORMATION WHILE CHECKING INPUT SPECIFICATIONS                           
      BLOCK NAME: PFR4    MODEL NAME: RPLUG                    (ZURE04.23)      
      RPLUG WILL CALCULATE THE THERMAL AND PHASE STATE                          
      FOR THE INLET COOLANT STREAM                                              
 
 


Calculations begin                                                              time      7.65


      UOS BLOCK PFR1     MODEL: RPLUG                                             TIME =      7.65
*************************************************************
   CONC OF PRIMARY RADICALS =   0.51062E-09
   MU0(1) =   0.23724E-06   MU1(1)  =   0.43785E-03
   LAM0   =   0.76405E-03   LAM1 =    1.0831    
   LAM2   =    4181.9    
   RMU0   =    0.0000       RMU1    =    0.0000    
   RLAM0  =   0.64691E-03   RLAM1   =   0.76887    
   RLAM2  =    2985.6    
   RLCB    =   0.23097E-03   RSCB    =   0.22524E-01
   KTD  =   0.79920E+09   KTC  =   0.77858E+09

   TIME (RESIDENCE TIME)  =    32.572    
[...]
      FOR THE INLET COOLANT STREAM                                              

      INFORMATION WHILE CHECKING INPUT SPECIFICATIONS                           
      BLOCK NAME: PFR3    MODEL NAME: RPLUG                    (ZURE04.23)      
      RPLUG WILL CALCULATE THE THERMAL AND PHASE STATE                          
      FOR THE INLET COOLANT STREAM                                              

      INFORMATION WHILE CHECKING INPUT SPECIFICATIONS                           
      BLOCK NAME: PFR4    MODEL NAME: RPLUG                    (ZURE04.23)      
      RPLUG WILL CALCULATE THE THERMAL AND PHASE STATE                          
      FOR THE INLET COOLANT STREAM                                              
 
 


Calculations begin                                                              time    346.79


      UOS BLOCK PFR1     MODEL: RPLUG                                             TIME =    346.79
        AT REACTOR EXIT :
        LENGTH =   250.00      DIAMETER =  0.59000E-01  RESIDENCE TIME =   31.025    
        PROCESS STREAM T =    495.05     P =   0.19000E+09 H =   0.20377E+08 V =    0.0000    
        COOLANT STREAM T =    433.71     P =   0.10000E+08 H =  -0.67942E+09 V =    0.0000    
        MIN T =   413.757     AT Z/LENGTH =   0.00000     MAX T =   556.868     AT Z/LENGTH =  0.247667    

      UOS BLOCK PFR2     MODEL: RPLUG                                             TIME =    346.81
        AT REACTOR EXIT :
        LENGTH =   220.00      DIAMETER =  0.59000E-01  RESIDENCE TIME =   27.776    
        PROCESS STREAM T =    465.71     P =   0.18000E+09 H =   0.19550E+08 V =    0.0000    
        COOLANT STREAM T =    438.72     P =   0.10000E+08 H =  -0.67849E+09 V =    0.0000    
        MIN T =   465.710     AT Z/LENGTH =   1.00000     MAX T =   495.050     AT Z/LENGTH =   0.00000    

      UOS BLOCK FDMIX2   MODEL: MIXER                                             TIME =    346.81
      KODE = 1   NO. TEMP ITER =    4     TEMP =  412.107    
      KPHASE =    2 KODE =    1 T =  412.107     P = 1.900000E+08 Q =  0.00000    

      UOS BLOCK PFR3     MODEL: RPLUG                                             TIME =    346.81
        AT REACTOR EXIT :
        LENGTH =   250.00      DIAMETER =  0.59000E-01  RESIDENCE TIME =   19.195    
        PROCESS STREAM T =    524.37     P =   0.18000E+09 H =   0.30557E+08 V =    0.0000    
        COOLANT STREAM T =    434.41     P =   0.10000E+08 H =  -0.67929E+09 V =    0.0000    
        MIN T =   412.107     AT Z/LENGTH =   0.00000     MAX T =   556.639     AT Z/LENGTH =  0.425192    

      UOS BLOCK PFR4     MODEL: RPLUG                                             TIME =    346.82
        AT REACTOR EXIT :
        LENGTH =   220.00      DIAMETER =  0.59000E-01  RESIDENCE TIME =   16.814    
        PROCESS STREAM T =    492.59     P =   0.17000E+09 H =   0.29096E+08 V =    0.0000    
        COOLANT STREAM T =    434.86     P =   0.10000E+08 H =  -0.67913E+09 V =    0.0000    
        MIN T =   492.594     AT Z/LENGTH =   1.00000     MAX T =   524.365     AT Z/LENGTH =   0.00000    

      UOS BLOCK HPS      MODEL: FLASH2                                            TIME =    346.82
      KODE = 1  NTRIAL =   4  T = 516.0173  P = 2.500000E+07  V = 0.837536      Q =  0.00000    

      UOS BLOCK LPS      MODEL: FLASH2                                            TIME =    346.82
      KODE = 1  NTRIAL =   2  T = 517.4239  P =  100000.      V = 0.107057      Q =  0.00000    

 Report Writer entered                                                            Time =    346.85

 Results generated                                                                Time =    347.10


*** INPUT SPECIFICATION MESSAGES ***

 BLOCK        PFR1     IS GENERATED BECAUSE OF OTHER CHANGES 05/16/2025   19:24:36:99 
 BLOCK PFR1 RPLUG
     SUBROUTINE QTRANS=USRHPE
     USER-VECS NREALQ=2
     REALQ VALUE-LIST=40. 100.
     PARAM TYPE=COUNTER-COOL LENGTH=250.0 DIAM=.0590 NPHASE=1  &
         PHASE=L PDROP=100. <BAR> NPOINT=40 INT-TOL=1E-005  &
         CORR-METHOD=DIRECT ERR-METHOD=STATIC
     COOLANT PDROP=4. <BAR> NPHASE=1 PHASE=L TEMP=170.0
     PROPERTIES POLYSL FREE-WATER=STEAM-TA SOLU-WATER=3  &
         TRUE-COMPS=YES / STEAM-TA FREE-WATER=STEAM-TA  &
         SOLU-WATER=3 TRUE-COMPS=YES
     REACTIONS RXN-IDS=R1

 BLOCK        PFR2     IS GENERATED BECAUSE OF OTHER CHANGES 05/16/2025   19:24:36:99 
 BLOCK PFR2 RPLUG
     SUBROUTINE QTRANS=USRHPE
     USER-VECS NREALQ=2
     REALQ VALUE-LIST=40. 100.
     PARAM TYPE=COUNTER-COOL LENGTH=220.0 DIAM=.0590 NPHASE=1  &
         PHASE=L PDROP=100. <BAR> NPOINT=20 INT-TOL=1E-005  &
         CORR-METHOD=DIRECT ERR-METHOD=STATIC
     COOLANT PDROP=4. <BAR> NPHASE=1 PHASE=L TEMP=170.0
     PROPERTIES POLYSL FREE-WATER=STEAM-TA SOLU-WATER=3  &
         TRUE-COMPS=YES / STEAM-TA FREE-WATER=STEAM-TA  &
         SOLU-WATER=3 TRUE-COMPS=YES
     REACTIONS RXN-IDS=R1

 BLOCK        PFR3     IS GENERATED BECAUSE OF OTHER CHANGES 05/16/2025   19:24:36:99 
 BLOCK PFR3 RPLUG
     SUBROUTINE QTRANS=USRHPE
     USER-VECS NREALQ=2
     REALQ VALUE-LIST=40. 100.
     PARAM TYPE=COUNTER-COOL LENGTH=250.0 DIAM=.0590 NPHASE=1  &
         PHASE=L PDROP=100. <BAR> NPOINT=40 INT-TOL=1E-005  &
         CORR-METHOD=DIRECT ERR-METHOD=STATIC
     COOLANT PDROP=4. <BAR> NPHASE=1 PHASE=L TEMP=170.0
     PROPERTIES POLYSL FREE-WATER=STEAM-TA SOLU-WATER=3  &
         TRUE-COMPS=YES / STEAM-TA FREE-WATER=STEAM-TA  &
         SOLU-WATER=3 TRUE-COMPS=YES
     REACTIONS RXN-IDS=R1

 BLOCK        PFR4     IS GENERATED BECAUSE OF OTHER CHANGES 05/16/2025   19:24:36:99 
 BLOCK PFR4 RPLUG
     SUBROUTINE QTRANS=USRHPE
     USER-VECS NREALQ=2
     REALQ VALUE-LIST=40. 100.
     PARAM TYPE=COUNTER-COOL LENGTH=220.0 DIAM=.0590 NPHASE=1  &
         PHASE=L PDROP=100. <BAR> NPOINT=20 INT-TOL=1E-005  &
         CORR-METHOD=DIRECT ERR-METHOD=STATIC
     COOLANT PDROP=4. <BAR> NPHASE=1 PHASE=L TEMP=170.0
     PROPERTIES POLYSL FREE-WATER=STEAM-TA SOLU-WATER=3  &
         TRUE-COMPS=YES / STEAM-TA FREE-WATER=STEAM-TA  &
         SOLU-WATER=3 TRUE-COMPS=YES
     REACTIONS RXN-IDS=R1

 CHANGES WERE MADE TO REACTIONS    R1       05/16/2025   19:24:36:99 
 REACTIONS R1 FREE-RAD
     DESCRIPTION 'Free-Radical Kinetic Scheme'
     PARAM QSSA=YES
     SPECIES INITIATOR=INI1 INI2 MONOMER=E2 POLYMER=LDPE
     MON-RSEG E2 E2-SEG
     INIT-DEC INI1 PRE-EXP=3.8607E-006 ACT-ENERGY=1.2721E+008  &
         ACT-VOLUME=0.0 REF-TEMP=60 EFFIC=0.4 NRADS=2
     INIT-DEC INI2 PRE-EXP=3.8562738E-09 ACT-ENERGY=1.5346E+008  &
         ACT-VOLUME=0.0 REF-TEMP=60 EFFIC=0.4 NRADS=2
     CHAIN-INI E2 PRE-EXP=218572840.51 ACT-ENERGY=3.5300E+07  &
         ACT-VOLUME=0.0
     PROPAGATION E2 E2 PRE-EXP=269523446.63  &
         ACT-ENERGY=3.5300E+07 ACT-VOLUME=-.02130
     CHAT-MON E2 E2 PRE-EXP=1477691.1985 ACT-ENERGY=4.5400E+07  &
         ACT-VOLUME=0.0
     CHAT-POL E2 E2 PRE-EXP=1241387.7747 ACT-ENERGY=3.0400E+07  &
         ACT-VOLUME=.00160
     B-SCISSION E2 PRE-EXP=51143628.976 ACT-ENERGY=4.5300E+07  &
         ACT-VOLUME=0.0
     TERM-DIS E2 E2 PRE-EXP=2923913642. ACT-ENERGY=4190000.0  &
         ACT-VOLUME=.0010
     TERM-COMB E2 E2 PRE-EXP=2989032381. ACT-ENERGY=4190000.0  &
         ACT-VOLUME=.0010
     SC-BRANCH E2 E2 PRE-EXP=1286369461.5 ACT-ENERGY=4.1600E+07  &
         ACT-VOLUME=0.0

 PDF updated                                                                      TIME =    347.54
 THIS COPY OF ASPEN PLUS LICENSED TO                                 

      INFORMATION WHILE CHECKING INPUT SPECIFICATIONS                           
      BLOCK NAME: PFR1    MODEL NAME: RPLUG                    (ZURE04.23)      
      RPLUG WILL CALCULATE THE THERMAL AND PHASE STATE                          
      FOR THE INLET COOLANT STREAM                                              

      INFORMATION WHILE CHECKING INPUT SPECIFICATIONS                           
      BLOCK NAME: PFR2    MODEL NAME: RPLUG                    (ZURE04.23)      
      RPLUG WILL CALCULATE THE THERMAL AND PHASE STATE                          
      FOR THE INLET COOLANT STREAM                                              

      INFORMATION WHILE CHECKING INPUT SPECIFICATIONS                           
      BLOCK NAME: PFR3    MODEL NAME: RPLUG                    (ZURE04.23)      
      RPLUG WILL CALCULATE THE THERMAL AND PHASE STATE                          
      FOR THE INLET COOLANT STREAM                                              

      INFORMATION WHILE CHECKING INPUT SPECIFICATIONS                           
      BLOCK NAME: PFR4    MODEL NAME: RPLUG                    (ZURE04.23)      
      RPLUG WILL CALCULATE THE THERMAL AND PHASE STATE                          
      FOR THE INLET COOLANT STREAM                                              
 
 


Calculations begin                                                              time    347.75


      UOS BLOCK PFR1     MODEL: RPLUG                                             TIME =    347.75
        AT REACTOR EXIT :
        LENGTH =   250.00      DIAMETER =  0.59000E-01  RESIDENCE TIME =   30.947    
        PROCESS STREAM T =    495.66     P =   0.19000E+09 H =   0.20262E+08 V =    0.0000    
        COOLANT STREAM T =    432.29     P =   0.10000E+08 H =  -0.67954E+09 V =    0.0000    
        MIN T =   413.757     AT Z/LENGTH =   0.00000     MAX T =   564.101     AT Z/LENGTH =  0.182025    

      UOS BLOCK PFR2     MODEL: RPLUG                                             TIME =    347.77
        AT REACTOR EXIT :
        LENGTH =   220.00      DIAMETER =  0.59000E-01  RESIDENCE TIME =   27.789    
        PROCESS STREAM T =    466.66     P =   0.18000E+09 H =   0.19443E+08 V =    0.0000    
        COOLANT STREAM T =    438.72     P =   0.10000E+08 H =  -0.67849E+09 V =    0.0000    
        MIN T =   466.662     AT Z/LENGTH =   1.00000     MAX T =   495.659     AT Z/LENGTH =   0.00000    

      UOS BLOCK FDMIX2   MODEL: MIXER                                             TIME =    347.77
      KODE = 1   NO. TEMP ITER =    4     TEMP =  412.711    
      KPHASE =    2 KODE =    1 T =  412.711     P = 1.900000E+08 Q =  0.00000    

      UOS BLOCK PFR3     MODEL: RPLUG                                             TIME =    347.77
        AT REACTOR EXIT :
        LENGTH =   250.00      DIAMETER =  0.59000E-01  RESIDENCE TIME =   19.110    
        PROCESS STREAM T =    524.42     P =   0.18000E+09 H =   0.30227E+08 V =    0.0000    
        COOLANT STREAM T =    432.24     P =   0.10000E+08 H =  -0.67951E+09 V =    0.0000    
        MIN T =   412.711     AT Z/LENGTH =   0.00000     MAX T =   563.747     AT Z/LENGTH =  0.306965    

      UOS BLOCK PFR4     MODEL: RPLUG                                             TIME =    347.81
        AT REACTOR EXIT :
        LENGTH =   220.00      DIAMETER =  0.59000E-01  RESIDENCE TIME =   16.839    
        PROCESS STREAM T =    493.68     P =   0.17000E+09 H =   0.28807E+08 V =    0.0000    
        COOLANT STREAM T =    435.61     P =   0.10000E+08 H =  -0.67909E+09 V =    0.0000    
        MIN T =   493.679     AT Z/LENGTH =   1.00000     MAX T =   524.418     AT Z/LENGTH =   0.00000    

      UOS BLOCK HPS      MODEL: FLASH2                                            TIME =    347.81
      KODE = 1  NTRIAL =   4  T = 517.3374  P = 2.500000E+07  V = 0.831781      Q =  0.00000    

      UOS BLOCK LPS      MODEL: FLASH2                                            TIME =    347.81
      KODE = 1  NTRIAL =   2  T = 518.7974  P =  100000.      V = 0.106656      Q =  0.00000    

 Report Writer entered                                                            Time =    347.84

 Results generated                                                                Time =    348.07


*** INPUT SPECIFICATION MESSAGES ***

 BLOCK        PFR1     IS GENERATED BECAUSE OF OTHER CHANGES 05/16/2025   19:24:37:99 
 BLOCK PFR1 RPLUG
     SUBROUTINE QTRANS=USRHPE
     USER-VECS NREALQ=2
     REALQ VALUE-LIST=40. 100.
     PARAM TYPE=COUNTER-COOL LENGTH=250.0 DIAM=.0590 NPHASE=1  &
         PHASE=L PDROP=100. <BAR> NPOINT=40 INT-TOL=1E-005  &
         CORR-METHOD=DIRECT ERR-METHOD=STATIC
     COOLANT PDROP=4. <BAR> NPHASE=1 PHASE=L TEMP=170.0
     PROPERTIES POLYSL FREE-WATER=STEAM-TA SOLU-WATER=3  &
         TRUE-COMPS=YES / STEAM-TA FREE-WATER=STEAM-TA  &
         SOLU-WATER=3 TRUE-COMPS=YES
     REACTIONS RXN-IDS=R1

 BLOCK        PFR2     IS GENERATED BECAUSE OF OTHER CHANGES 05/16/2025   19:24:37:99 
 BLOCK PFR2 RPLUG
     SUBROUTINE QTRANS=USRHPE
     USER-VECS NREALQ=2
     REALQ VALUE-LIST=40. 100.
     PARAM TYPE=COUNTER-COOL LENGTH=220.0 DIAM=.0590 NPHASE=1  &
         PHASE=L PDROP=100. <BAR> NPOINT=20 INT-TOL=1E-005  &
         CORR-METHOD=DIRECT ERR-METHOD=STATIC
     COOLANT PDROP=4. <BAR> NPHASE=1 PHASE=L TEMP=170.0
     PROPERTIES POLYSL FREE-WATER=STEAM-TA SOLU-WATER=3  &
         TRUE-COMPS=YES / STEAM-TA FREE-WATER=STEAM-TA  &
         SOLU-WATER=3 TRUE-COMPS=YES
     REACTIONS RXN-IDS=R1

 BLOCK        PFR3     IS GENERATED BECAUSE OF OTHER CHANGES 05/16/2025   19:24:37:99 
 BLOCK PFR3 RPLUG
     SUBROUTINE QTRANS=USRHPE
     USER-VECS NREALQ=2
     REALQ VALUE-LIST=40. 100.
     PARAM TYPE=COUNTER-COOL LENGTH=250.0 DIAM=.0590 NPHASE=1  &
         PHASE=L PDROP=100. <BAR> NPOINT=40 INT-TOL=1E-005  &
         CORR-METHOD=DIRECT ERR-METHOD=STATIC
     COOLANT PDROP=4. <BAR> NPHASE=1 PHASE=L TEMP=170.0
     PROPERTIES POLYSL FREE-WATER=STEAM-TA SOLU-WATER=3  &
         TRUE-COMPS=YES / STEAM-TA FREE-WATER=STEAM-TA  &
         SOLU-WATER=3 TRUE-COMPS=YES
     REACTIONS RXN-IDS=R1

 BLOCK        PFR4     IS GENERATED BECAUSE OF OTHER CHANGES 05/16/2025   19:24:37:99 
 BLOCK PFR4 RPLUG
     SUBROUTINE QTRANS=USRHPE
     USER-VECS NREALQ=2
     REALQ VALUE-LIST=40. 100.
     PARAM TYPE=COUNTER-COOL LENGTH=220.0 DIAM=.0590 NPHASE=1  &
         PHASE=L PDROP=100. <BAR> NPOINT=20 INT-TOL=1E-005  &
         CORR-METHOD=DIRECT ERR-METHOD=STATIC
     COOLANT PDROP=4. <BAR> NPHASE=1 PHASE=L TEMP=170.0
     PROPERTIES POLYSL FREE-WATER=STEAM-TA SOLU-WATER=3  &
         TRUE-COMPS=YES / STEAM-TA FREE-WATER=STEAM-TA  &
         SOLU-WATER=3 TRUE-COMPS=YES
     REACTIONS RXN-IDS=R1

 CHANGES WERE MADE TO REACTIONS    R1       05/16/2025   19:24:37:99 
 REACTIONS R1 FREE-RAD
     DESCRIPTION 'Free-Radical Kinetic Scheme'
     PARAM QSSA=YES
     SPECIES INITIATOR=INI1 INI2 MONOMER=E2 POLYMER=LDPE
     MON-RSEG E2 E2-SEG
     INIT-DEC INI1 PRE-EXP=3.8607E-006 ACT-ENERGY=1.2721E+008  &
         ACT-VOLUME=0.0 REF-TEMP=60 EFFIC=0.4 NRADS=2
     INIT-DEC INI2 PRE-EXP=3.3505255E-09 ACT-ENERGY=1.5346E+008  &
         ACT-VOLUME=0.0 REF-TEMP=60 EFFIC=0.4 NRADS=2
     CHAIN-INI E2 PRE-EXP=282565128.89 ACT-ENERGY=3.5300E+07  &
         ACT-VOLUME=0.0
     PROPAGATION E2 E2 PRE-EXP=221951643.75  &
         ACT-ENERGY=3.5300E+07 ACT-VOLUME=-.02130
     CHAT-MON E2 E2 PRE-EXP=1421942.8264 ACT-ENERGY=4.5400E+07  &
         ACT-VOLUME=0.0
     CHAT-POL E2 E2 PRE-EXP=1174776.9026 ACT-ENERGY=3.0400E+07  &
         ACT-VOLUME=.00160
     B-SCISSION E2 PRE-EXP=52529323.208 ACT-ENERGY=4.5300E+07  &
         ACT-VOLUME=0.0
     TERM-DIS E2 E2 PRE-EXP=2213460346. ACT-ENERGY=4190000.0  &
         ACT-VOLUME=.0010
     TERM-COMB E2 E2 PRE-EXP=2964817225. ACT-ENERGY=4190000.0  &
         ACT-VOLUME=.0010
     SC-BRANCH E2 E2 PRE-EXP=1455773928.9 ACT-ENERGY=4.1600E+07  &
         ACT-VOLUME=0.0

 PDF updated                                                                      TIME =    348.52
 THIS COPY OF ASPEN PLUS LICENSED TO                                 

      INFORMATION WHILE CHECKING INPUT SPECIFICATIONS                           
      BLOCK NAME: PFR1    MODEL NAME: RPLUG                    (ZURE04.23)      
      RPLUG WILL CALCULATE THE THERMAL AND PHASE STATE                          
      FOR THE INLET COOLANT STREAM                                              

      INFORMATION WHILE CHECKING INPUT SPECIFICATIONS                           
      BLOCK NAME: PFR2    MODEL NAME: RPLUG                    (ZURE04.23)      
      RPLUG WILL CALCULATE THE THERMAL AND PHASE STATE                          
      FOR THE INLET COOLANT STREAM                                              

      INFORMATION WHILE CHECKING INPUT SPECIFICATIONS                           
      BLOCK NAME: PFR3    MODEL NAME: RPLUG                    (ZURE04.23)      
      RPLUG WILL CALCULATE THE THERMAL AND PHASE STATE                          
      FOR THE INLET COOLANT STREAM                                              

      INFORMATION WHILE CHECKING INPUT SPECIFICATIONS                           
      BLOCK NAME: PFR4    MODEL NAME: RPLUG                    (ZURE04.23)      
      RPLUG WILL CALCULATE THE THERMAL AND PHASE STATE                          
      FOR THE INLET COOLANT STREAM                                              
 
 


Calculations begin                                                              time    348.78


      UOS BLOCK PFR1     MODEL: RPLUG                                             TIME =    348.78
        AT REACTOR EXIT :
        LENGTH =   250.00      DIAMETER =  0.59000E-01  RESIDENCE TIME =   30.987    
        PROCESS STREAM T =    495.79     P =   0.19000E+09 H =   0.20327E+08 V =    0.0000    
        COOLANT STREAM T =    433.68     P =   0.10000E+08 H =  -0.67947E+09 V =    0.0000    
        MIN T =   413.757     AT Z/LENGTH =   0.00000     MAX T =   560.348     AT Z/LENGTH =  0.222793    

      UOS BLOCK PFR2     MODEL: RPLUG                                             TIME =    348.80
        AT REACTOR EXIT :
        LENGTH =   220.00      DIAMETER =  0.59000E-01  RESIDENCE TIME =   27.776    
        PROCESS STREAM T =    466.39     P =   0.18000E+09 H =   0.19498E+08 V =    0.0000    
        COOLANT STREAM T =    438.70     P =   0.10000E+08 H =  -0.67850E+09 V =    0.0000    
        MIN T =   466.394     AT Z/LENGTH =   1.00000     MAX T =   495.795     AT Z/LENGTH =   0.00000    

      UOS BLOCK FDMIX2   MODEL: MIXER                                             TIME =    348.80
      KODE = 1   NO. TEMP ITER =    4     TEMP =  412.544    
      KPHASE =    2 KODE =    1 T =  412.544     P = 1.900000E+08 Q =  0.00000    

      UOS BLOCK PFR3     MODEL: RPLUG                                             TIME =    348.80
        AT REACTOR EXIT :
        LENGTH =   250.00      DIAMETER =  0.59000E-01  RESIDENCE TIME =   19.156    
        PROCESS STREAM T =    524.87     P =   0.18000E+09 H =   0.30408E+08 V =    0.0000    
        COOLANT STREAM T =    433.96     P =   0.10000E+08 H =  -0.67939E+09 V =    0.0000    
        MIN T =   412.544     AT Z/LENGTH =   0.00000     MAX T =   560.111     AT Z/LENGTH =  0.376538    

      UOS BLOCK PFR4     MODEL: RPLUG                                             TIME =    348.82
        AT REACTOR EXIT :
        LENGTH =   220.00      DIAMETER =  0.59000E-01  RESIDENCE TIME =   16.821    
        PROCESS STREAM T =    493.46     P =   0.17000E+09 H =   0.28962E+08 V =    0.0000    
        COOLANT STREAM T =    434.86     P =   0.10000E+08 H =  -0.67911E+09 V =    0.0000    
        MIN T =   493.464     AT Z/LENGTH =   1.00000     MAX T =   524.865     AT Z/LENGTH =   0.00000    

      UOS BLOCK HPS      MODEL: FLASH2                                            TIME =    348.83
      KODE = 1  NTRIAL =   2  T = 516.9838  P = 2.500000E+07  V = 0.834626      Q =  0.00000    

      UOS BLOCK LPS      MODEL: FLASH2                                            TIME =    348.83
      KODE = 1  NTRIAL =   1  T = 518.4307  P =  100000.      V = 0.106750      Q =  0.00000    

 Report Writer entered                                                            Time =    348.86

 Results generated                                                                Time =    349.09
